version 3
run UDP-0-20241112-10:56:20-17020
attr configname UDP
attr datetime 20241112-10:56:20
attr datetimef 20241112-105620
attr experiment UDP
attr inifile omnetpp.ini
attr iterationvars ""
attr iterationvarsd ""
attr iterationvarsf ""
attr measurement ""
attr network manets
attr processid 17020
attr repetition 0
attr replication #0
attr resultdir results
attr runnumber 0
attr seedset 0
config image-path ../../inet4.5/images
config **.nodoFijo1.numApps 1
config **.nodoFijo2.numApps 1
config **.nodoFijo1.app[0].typename UdpBasicApp
config **.nodoFijo1.app[0].destAddresses "\"nodoFijo2\""
config **.nodoFijo1.app[0].destPort 1000
config **.nodoFijo1.app[0].startTime 5s
config **.nodoFijo1.app[0].messageLength 50B
config **.nodoFijo1.app[0].sendInterval 0.25s
config **.nodoFijo2.app[0].typename UdpEchoApp
config **.nodoFijo2.app[0].localPort 1000
config network manets
config seed-0-mt 4
config **.wlan[*].typename AckingWirelessInterface
config **.wlan[*].bitrate 2Mbps
config **.wlan[*].mac.headerLength 20B
config **.wlan[*].radio.typename UnitDiskRadio
config **.wlan[*].radio.transmitter.headerLength 96b
config **.wlan[*].radio.transmitter.communicationRange 400m
config **.wlan[*].radio.transmitter.interferenceRange 0m
config **.wlan[*].radio.transmitter.detectionRange 0m
config **.wlan[*].radio.receiver.ignoreInterference true
config *.n 7
config **.mobility.initFromDisplayString false
config **.nodoMovil[*].mobility.typename MassMobility
config **.nodoMovil[*].mobility.speed 1mps
config **.mobility.constraintAreaMinZ 0m
config **.mobility.constraintAreaMaxZ 0m
config **.mobility.constraintAreaMinX 0m
config **.mobility.constraintAreaMinY 0m
config **.mobility.constraintAreaMaxX 1200m
config **.mobility.constraintAreaMaxY 600m
config **.nodoMovil[*].mobility.changeInterval "normal(5s, 0.1s)"
config **.nodoMovil[*].mobility.changeAngleBy "normal(0deg, 30deg)"
config **.nodoFijo1.mobility.initialX 0m
config **.nodoFijo1.mobility.initialY 300m
config **.nodoFijo2.mobility.initialX 1200m
config **.nodoFijo2.mobility.initialY 300m
config **.dataLinkVisualizer.displayLinks true
config **.nodoMovil*.wlan[*].radio.displayCommunicationRange true
config **.networkRouteVisualizer.displayRoutes true

par manets.radioMedium.propagation typename "\"inet.physicallayer.wireless.common.propagation.ConstantSpeedPropagation\""
par manets.radioMedium.propagation propagationSpeed 2.99792e+08mps
attr unit mps
par manets.radioMedium.propagation ignoreMovementDuringTransmission true
par manets.radioMedium.propagation ignoreMovementDuringPropagation true
par manets.radioMedium.propagation ignoreMovementDuringReception true
scalar manets.radioMedium.propagation "Arrival computation count" 64
par manets.radioMedium.analogModel typename "\"inet.physicallayer.wireless.unitdisk.UnitDiskAnalogModel\""
par manets.radioMedium.pathLoss typename "\"inet.physicallayer.wireless.common.pathloss.FreeSpacePathLoss\""
par manets.radioMedium.pathLoss alpha 2
par manets.radioMedium.pathLoss systemLoss 0dB
attr unit dB
par manets.radioMedium.mediumLimitCache typename "\"inet.physicallayer.wireless.common.medium.MediumLimitCache\""
par manets.radioMedium.mediumLimitCache centerFrequency "nan Hz"
attr unit Hz
par manets.radioMedium.mediumLimitCache maxSpeed "nan mps"
attr unit mps
par manets.radioMedium.mediumLimitCache maxTransmissionPower "nan W"
attr unit W
par manets.radioMedium.mediumLimitCache minInterferencePower "nan dBm"
attr unit dBm
par manets.radioMedium.mediumLimitCache minReceptionPower "nan dBm"
attr unit dBm
par manets.radioMedium.mediumLimitCache maxAntennaGain 0dB
attr unit dB
par manets.radioMedium.mediumLimitCache minInterferenceTime 1e-12s
attr unit s
par manets.radioMedium.mediumLimitCache maxTransmissionDuration 0.01s
attr unit s
par manets.radioMedium.mediumLimitCache maxCommunicationRange "nan m"
attr unit m
par manets.radioMedium.mediumLimitCache maxInterferenceRange "nan m"
attr unit m
par manets.radioMedium.communicationCache typename "\"inet.physicallayer.wireless.common.communicationcache.VectorCommunicationCache\""
par manets.radioMedium typename "\"inet.physicallayer.wireless.unitdisk.UnitDiskRadioMedium\""
par manets.radioMedium physicalEnvironmentModule "\"physicalEnvironment\""
par manets.radioMedium signalAnalogRepresentation "\"unitDisk\""
attr enum unitDisk,scalar,dimensional
par manets.radioMedium rangeFilter "\"\""
par manets.radioMedium radioModeFilter false
par manets.radioMedium listeningFilter false
par manets.radioMedium macAddressFilter false
par manets.radioMedium recordTransmissionLog false
par manets.radioMedium recordReceptionLog false
scalar manets.radioMedium "transmission count" 8
scalar manets.radioMedium "signal send count" 64
scalar manets.radioMedium "reception computation count" 64
scalar manets.radioMedium "interference computation count" 226
scalar manets.radioMedium "reception decision computation count" 24
scalar manets.radioMedium "listening decision computation count" 138
scalar manets.radioMedium "reception cache hit" 80.487804878049
attr unit %
scalar manets.radioMedium "interference cache hit" 66.666666666667
attr unit %
scalar manets.radioMedium "noise cache hit" 0
attr unit %
scalar manets.radioMedium "snir cache hit" 50
attr unit %
scalar manets.radioMedium "reception decision cache hit" 50
attr unit %
scalar manets.radioMedium "reception result cache hit" 0
attr unit %
par manets.visualizer.sceneVisualizer typename "\"inet.visualizer.canvas.scene.SceneCanvasVisualizer\""
par manets.visualizer.sceneVisualizer visualizationTargetModule "\"^.^\""
par manets.visualizer.sceneVisualizer visualizationSubjectModule "\"^.^\""
par manets.visualizer.sceneVisualizer tags "\"\""
par manets.visualizer.sceneVisualizer physicalEnvironmentModule "\"physicalEnvironment\""
par manets.visualizer.sceneVisualizer networkNodeVisualizerModule "\"^.networkNodeVisualizer\""
par manets.visualizer.sceneVisualizer axisLength "nan m"
attr mutable ""
attr unit m
par manets.visualizer.sceneVisualizer animationSpeed 0
par manets.visualizer.sceneVisualizer sceneMinX "nan m"
attr unit m
par manets.visualizer.sceneVisualizer sceneMinY "nan m"
attr unit m
par manets.visualizer.sceneVisualizer sceneMinZ "nan m"
attr unit m
par manets.visualizer.sceneVisualizer sceneMaxX "nan m"
attr unit m
par manets.visualizer.sceneVisualizer sceneMaxY "nan m"
attr unit m
par manets.visualizer.sceneVisualizer sceneMaxZ "nan m"
attr unit m
par manets.visualizer.sceneVisualizer zIndex 0
par manets.visualizer.sceneVisualizer viewAngle "\"x right y down z out\""
attr mutable ""
par manets.visualizer.sceneVisualizer viewScale "\"1 1\""
attr mutable ""
par manets.visualizer.sceneVisualizer viewTranslation "\"0 0\""
attr mutable ""
par manets.visualizer.sceneVisualizer descriptionFigure "\"\""
par manets.visualizer.physicalEnvironmentVisualizer typename "\"inet.visualizer.canvas.environment.PhysicalEnvironmentCanvasVisualizer\""
par manets.visualizer.physicalEnvironmentVisualizer visualizationTargetModule "\"^.^\""
par manets.visualizer.physicalEnvironmentVisualizer visualizationSubjectModule "\"^.^\""
par manets.visualizer.physicalEnvironmentVisualizer tags "\"\""
par manets.visualizer.physicalEnvironmentVisualizer physicalEnvironmentModule "\"physicalEnvironment\""
par manets.visualizer.physicalEnvironmentVisualizer displayObjects true
par manets.visualizer.physicalEnvironmentVisualizer zIndex 0
par manets.visualizer.networkNodeVisualizer typename "\"inet.visualizer.canvas.scene.NetworkNodeCanvasVisualizer\""
par manets.visualizer.networkNodeVisualizer visualizationTargetModule "\"^.^\""
par manets.visualizer.networkNodeVisualizer visualizationSubjectModule "\"^.^\""
par manets.visualizer.networkNodeVisualizer tags "\"\""
par manets.visualizer.networkNodeVisualizer nodeFilter "\"*\""
attr mutable ""
par manets.visualizer.networkNodeVisualizer annotationSpacing 4
par manets.visualizer.networkNodeVisualizer placementPenalty 10
par manets.visualizer.networkNodeVisualizer zIndex 0
par manets.visualizer.networkConnectionVisualizer typename "\"inet.visualizer.canvas.scene.NetworkConnectionCanvasVisualizer\""
par manets.visualizer.networkConnectionVisualizer visualizationTargetModule "\"^.^\""
par manets.visualizer.networkConnectionVisualizer visualizationSubjectModule "\"^.^\""
par manets.visualizer.networkConnectionVisualizer tags "\"\""
par manets.visualizer.networkConnectionVisualizer displayNetworkConnections true
par manets.visualizer.networkConnectionVisualizer nodeFilter "\"\""
attr mutable ""
par manets.visualizer.networkConnectionVisualizer lineColor "\"black\""
par manets.visualizer.networkConnectionVisualizer lineStyle "\"solid\""
par manets.visualizer.networkConnectionVisualizer lineWidth 1
par manets.visualizer.networkConnectionVisualizer zIndex 0
par manets.visualizer.mobilityVisualizer typename "\"inet.visualizer.canvas.mobility.MobilityCanvasVisualizer\""
par manets.visualizer.mobilityVisualizer visualizationTargetModule "\"^.^\""
par manets.visualizer.mobilityVisualizer visualizationSubjectModule "\"^.^\""
par manets.visualizer.mobilityVisualizer tags "\"\""
par manets.visualizer.mobilityVisualizer networkNodeVisualizerModule "\"^.networkNodeVisualizer\""
par manets.visualizer.mobilityVisualizer displayMobility true
par manets.visualizer.mobilityVisualizer animationSpeed 0
par manets.visualizer.mobilityVisualizer moduleFilter "\"**.mobility\""
attr mutable ""
par manets.visualizer.mobilityVisualizer displayPositions false
par manets.visualizer.mobilityVisualizer positionCircleRadius 4
par manets.visualizer.mobilityVisualizer positionCircleLineWidth 1
par manets.visualizer.mobilityVisualizer positionCircleLineColor "\"dark\""
attr enum light,dark
par manets.visualizer.mobilityVisualizer positionCircleFillColor "\"dark\""
attr enum light,dark
par manets.visualizer.mobilityVisualizer displayOrientations false
par manets.visualizer.mobilityVisualizer orientationPieRadius 32
par manets.visualizer.mobilityVisualizer orientationPieSize 0.2
par manets.visualizer.mobilityVisualizer orientationPieOpacity 0.25
par manets.visualizer.mobilityVisualizer orientationLineColor "\"black\""
par manets.visualizer.mobilityVisualizer orientationLineStyle "\"solid\""
par manets.visualizer.mobilityVisualizer orientationLineWidth 1
par manets.visualizer.mobilityVisualizer orientationFillColor "\"blue\""
par manets.visualizer.mobilityVisualizer displayVelocities false
par manets.visualizer.mobilityVisualizer velocityArrowScale 1
par manets.visualizer.mobilityVisualizer velocityLineColor "\"black\""
par manets.visualizer.mobilityVisualizer velocityLineStyle "\"solid\""
par manets.visualizer.mobilityVisualizer velocityLineWidth 1
par manets.visualizer.mobilityVisualizer displayMovementTrails false
par manets.visualizer.mobilityVisualizer movementTrailLineColor "\"dark\""
attr enum light,dark
par manets.visualizer.mobilityVisualizer movementTrailLineStyle "\"solid\""
par manets.visualizer.mobilityVisualizer movementTrailLineWidth 1
par manets.visualizer.mobilityVisualizer trailLength 100
par manets.visualizer.mobilityVisualizer zIndex 0
par manets.visualizer.statisticVisualizer typename "\"inet.visualizer.canvas.common.StatisticCanvasVisualizer\""
par manets.visualizer.statisticVisualizer visualizationTargetModule "\"^.^\""
par manets.visualizer.statisticVisualizer visualizationSubjectModule "\"^.^\""
par manets.visualizer.statisticVisualizer tags "\"\""
par manets.visualizer.statisticVisualizer networkNodeVisualizerModule "\"^.networkNodeVisualizer\""
par manets.visualizer.statisticVisualizer displayStatistics true
par manets.visualizer.statisticVisualizer signalName "\"\""
par manets.visualizer.statisticVisualizer statisticName "\"\""
par manets.visualizer.statisticVisualizer statisticUnit "\"\""
par manets.visualizer.statisticVisualizer statisticExpression "\"\""
par manets.visualizer.statisticVisualizer sourceFilter "\"**\""
attr mutable ""
par manets.visualizer.statisticVisualizer format "\"%n: %v %u\""
attr mutable ""
par manets.visualizer.statisticVisualizer unit "\"\""
par manets.visualizer.statisticVisualizer font "\"<default>\""
par manets.visualizer.statisticVisualizer textColor "\"black\""
par manets.visualizer.statisticVisualizer backgroundColor "\"white\""
par manets.visualizer.statisticVisualizer opacity 1
par manets.visualizer.statisticVisualizer placementHint "\"top\""
par manets.visualizer.statisticVisualizer placementPriority 0
par manets.visualizer.statisticVisualizer zIndex 10
par manets.visualizer.statisticVisualizer propertyName "\"\""
par manets.visualizer.statisticVisualizer propertyIndex "\"\""
par manets.visualizer.infoVisualizer typename "\"inet.visualizer.canvas.common.InfoCanvasVisualizer\""
par manets.visualizer.infoVisualizer visualizationTargetModule "\"^.^\""
par manets.visualizer.infoVisualizer visualizationSubjectModule "\"^.^\""
par manets.visualizer.infoVisualizer tags "\"\""
par manets.visualizer.infoVisualizer networkNodeVisualizerModule "\"^.networkNodeVisualizer\""
par manets.visualizer.infoVisualizer displayInfos true
par manets.visualizer.infoVisualizer modules "\"\""
attr mutable ""
par manets.visualizer.infoVisualizer format "\"%t\""
attr mutable ""
par manets.visualizer.infoVisualizer font "\"<default>\""
par manets.visualizer.infoVisualizer textColor "\"black\""
par manets.visualizer.infoVisualizer backgroundColor "\"white\""
par manets.visualizer.infoVisualizer opacity 1
par manets.visualizer.infoVisualizer placementHint "\"top\""
par manets.visualizer.infoVisualizer placementPriority 0
par manets.visualizer.infoVisualizer zIndex 10
par manets.visualizer.energyStorageVisualizer typename "\"inet.visualizer.canvas.power.EnergyStorageCanvasVisualizer\""
par manets.visualizer.energyStorageVisualizer visualizationTargetModule "\"^.^\""
par manets.visualizer.energyStorageVisualizer visualizationSubjectModule "\"^.^\""
par manets.visualizer.energyStorageVisualizer tags "\"\""
par manets.visualizer.energyStorageVisualizer networkNodeVisualizerModule "\"^.networkNodeVisualizer\""
par manets.visualizer.energyStorageVisualizer displayEnergyStorages false
par manets.visualizer.energyStorageVisualizer energyStorageFilter "\"**\""
par manets.visualizer.energyStorageVisualizer color "\"green\""
par manets.visualizer.energyStorageVisualizer width 8
par manets.visualizer.energyStorageVisualizer height 24
par manets.visualizer.energyStorageVisualizer spacing 2
par manets.visualizer.energyStorageVisualizer placementHint "\"right\""
par manets.visualizer.energyStorageVisualizer placementPriority 0
par manets.visualizer.energyStorageVisualizer zIndex 10
par manets.visualizer.mediumVisualizer typename "\"inet.visualizer.canvas.physicallayer.MediumCanvasVisualizer\""
par manets.visualizer.mediumVisualizer visualizationTargetModule "\"^.^\""
par manets.visualizer.mediumVisualizer visualizationSubjectModule "\"^.^\""
par manets.visualizer.mediumVisualizer tags "\"\""
par manets.visualizer.mediumVisualizer mediumModule "\"radioMedium\""
par manets.visualizer.mediumVisualizer networkNodeVisualizerModule "\"^.networkNodeVisualizer\""
par manets.visualizer.mediumVisualizer nodeFilter "\"*\""
attr mutable ""
par manets.visualizer.mediumVisualizer interfaceFilter "\"*\""
attr mutable ""
par manets.visualizer.mediumVisualizer packetFilter "(omnetpp::cValueHolder)holder: \"*\""
attr mutable ""
par manets.visualizer.mediumVisualizer displaySignals false
par manets.visualizer.mediumVisualizer signalColor "\"dark\""
attr enum light,dark
par manets.visualizer.mediumVisualizer signalPropagationAnimationSpeed "nan "
attr mutable ""
par manets.visualizer.mediumVisualizer signalPropagationAnimationTime 1s
attr unit s
par manets.visualizer.mediumVisualizer signalPropagationAdditionalTime 0s
attr unit s
par manets.visualizer.mediumVisualizer signalTransmissionAnimationSpeed "nan "
attr mutable ""
par manets.visualizer.mediumVisualizer signalTransmissionAnimationTime 1s
attr unit s
par manets.visualizer.mediumVisualizer signalAnimationSpeedChangeTimeMode "\"realTime\""
attr enum realTime,animationTime,simulationTime
par manets.visualizer.mediumVisualizer signalAnimationSpeedChangeTime 1s
attr unit s
par manets.visualizer.mediumVisualizer displaySignalDepartures false
par manets.visualizer.mediumVisualizer signalDepartureImage "\"misc/signal_departure.png\""
par manets.visualizer.mediumVisualizer signalDeparturePlacementHint "\"topCenter\""
par manets.visualizer.mediumVisualizer signalDeparturePlacementPriority 1
par manets.visualizer.mediumVisualizer displaySignalArrivals false
par manets.visualizer.mediumVisualizer signalArrivalImage "\"misc/signal_arrival.png\""
par manets.visualizer.mediumVisualizer signalArrivalPlacementHint "\"topCenter\""
par manets.visualizer.mediumVisualizer signalArrivalPlacementPriority -1
par manets.visualizer.mediumVisualizer displayCommunicationRanges false
par manets.visualizer.mediumVisualizer communicationRangeLineColor "\"blue\""
par manets.visualizer.mediumVisualizer communicationRangeLineStyle "\"solid\""
par manets.visualizer.mediumVisualizer communicationRangeLineWidth 1
par manets.visualizer.mediumVisualizer displayInterferenceRanges false
par manets.visualizer.mediumVisualizer interferenceRangeLineColor "\"gray\""
par manets.visualizer.mediumVisualizer interferenceRangeLineStyle "\"solid\""
par manets.visualizer.mediumVisualizer interferenceRangeLineWidth 1
par manets.visualizer.mediumVisualizer autoPowerAxis true
par manets.visualizer.mediumVisualizer signalMinPower "inf dBmW"
attr unit dBmW
par manets.visualizer.mediumVisualizer signalMaxPower 0dBmW
attr unit dBmW
par manets.visualizer.mediumVisualizer signalMinPowerDensity "inf dBmWpMHz"
attr unit dBmWpMHz
par manets.visualizer.mediumVisualizer signalMaxPowerDensity "-inf dBmWpMHz"
attr unit dBmWpMHz
par manets.visualizer.mediumVisualizer autoTimeAxis true
par manets.visualizer.mediumVisualizer signalMinTime 0s
attr unit s
par manets.visualizer.mediumVisualizer signalMaxTime 0s
attr unit s
par manets.visualizer.mediumVisualizer autoFrequencyAxis true
par manets.visualizer.mediumVisualizer signalMinFrequency "inf Hz"
attr unit Hz
par manets.visualizer.mediumVisualizer signalMaxFrequency "-inf Hz"
attr unit Hz
par manets.visualizer.mediumVisualizer displayMainPowerDensityMap false
par manets.visualizer.mediumVisualizer mainPowerDensityMapPixmapDensity 1
par manets.visualizer.mediumVisualizer mainPowerDensityMapMinX 0
par manets.visualizer.mediumVisualizer mainPowerDensityMapMaxX "nan "
par manets.visualizer.mediumVisualizer mainPowerDensityMapMinY 0
par manets.visualizer.mediumVisualizer mainPowerDensityMapMaxY "nan "
par manets.visualizer.mediumVisualizer mainPowerDensityMapZ 0
par manets.visualizer.mediumVisualizer mainPowerDensityMapFigureXTickCount 3
par manets.visualizer.mediumVisualizer mainPowerDensityMapFigureYTickCount 3
par manets.visualizer.mediumVisualizer displayPowerDensityMaps false
par manets.visualizer.mediumVisualizer powerDensityMapMode "\"auto\""
attr enum total,signal,auto
par manets.visualizer.mediumVisualizer powerDensityMapPixelMode "\"mean\""
attr enum sample,partition,mean
par manets.visualizer.mediumVisualizer powerDensityMapApproximationSize 10
par manets.visualizer.mediumVisualizer powerDensityMapCenterFrequency "nan Hz"
attr mutable ""
attr unit Hz
par manets.visualizer.mediumVisualizer powerDensityMapBandwidth 0Hz
attr mutable ""
attr unit Hz
par manets.visualizer.mediumVisualizer powerDensityMapFigureWidth 200
par manets.visualizer.mediumVisualizer powerDensityMapFigureHeight 120
par manets.visualizer.mediumVisualizer powerDensityMapPixmapWidth 200
par manets.visualizer.mediumVisualizer powerDensityMapPixmapHeight 120
par manets.visualizer.mediumVisualizer powerDensityMapZ 0
par manets.visualizer.mediumVisualizer powerDensityMapFigureXTickCount 3
par manets.visualizer.mediumVisualizer powerDensityMapFigureYTickCount 3
par manets.visualizer.mediumVisualizer displaySpectrums false
par manets.visualizer.mediumVisualizer spectrumMode "\"auto\""
attr enum total,signal,auto
par manets.visualizer.mediumVisualizer spectrumFigureWidth 200
par manets.visualizer.mediumVisualizer spectrumFigureHeight 120
par manets.visualizer.mediumVisualizer spectrumFigureXTickCount 3
par manets.visualizer.mediumVisualizer spectrumFigureYTickCount 5
par manets.visualizer.mediumVisualizer spectrumFigureInterpolationSize 5
par manets.visualizer.mediumVisualizer spectrumPlacementHint "\"bottomCenter\""
par manets.visualizer.mediumVisualizer spectrumPlacementPriority -1
par manets.visualizer.mediumVisualizer displaySpectrograms false
par manets.visualizer.mediumVisualizer spectrogramMode "\"auto\""
attr enum total,signal,auto
par manets.visualizer.mediumVisualizer spectrogramPixelMode "\"mean\""
attr enum sample,partition,mean
par manets.visualizer.mediumVisualizer spectrogramFigureWidth 200
par manets.visualizer.mediumVisualizer spectrogramFigureHeight 120
par manets.visualizer.mediumVisualizer spectrogramPixmapWidth 200
par manets.visualizer.mediumVisualizer spectrogramPixmapHeight 120
par manets.visualizer.mediumVisualizer spectrogramFigureXTickCount 3
par manets.visualizer.mediumVisualizer spectrogramFigureYTickCount 5
par manets.visualizer.mediumVisualizer spectrogramPlacementHint "\"bottomCenter\""
par manets.visualizer.mediumVisualizer spectrogramPlacementPriority -1
par manets.visualizer.mediumVisualizer zIndex 0
par manets.visualizer.mediumVisualizer signalShape "\"ring\""
attr enum ring,sphere
par manets.visualizer.mediumVisualizer signalOpacity 0.5
par manets.visualizer.mediumVisualizer signalRingCount 20
par manets.visualizer.mediumVisualizer signalRingSize 50m
attr unit m
par manets.visualizer.mediumVisualizer signalFadingDistance 50m
attr unit m
par manets.visualizer.mediumVisualizer signalFadingFactor 1.2
par manets.visualizer.mediumVisualizer signalWaveCount 20
par manets.visualizer.mediumVisualizer signalWaveLength 50m
attr unit m
par manets.visualizer.mediumVisualizer signalWaveWidth 10m
attr unit m
par manets.visualizer.mediumVisualizer signalWaveFadingAnimationSpeedFactor 1
par manets.visualizer.mediumVisualizer displayCommunicationHeat false
par manets.visualizer.obstacleLossVisualizer typename "\"inet.visualizer.canvas.physicallayer.TracingObstacleLossCanvasVisualizer\""
par manets.visualizer.obstacleLossVisualizer visualizationTargetModule "\"^.^\""
par manets.visualizer.obstacleLossVisualizer visualizationSubjectModule "\"^.^\""
par manets.visualizer.obstacleLossVisualizer tags "\"\""
par manets.visualizer.obstacleLossVisualizer displayIntersections false
par manets.visualizer.obstacleLossVisualizer intersectionLineColor "\"red\""
par manets.visualizer.obstacleLossVisualizer intersectionLineStyle "\"solid\""
par manets.visualizer.obstacleLossVisualizer intersectionLineWidth 1
par manets.visualizer.obstacleLossVisualizer displayFaceNormalVectors false
par manets.visualizer.obstacleLossVisualizer faceNormalLineColor "\"grey\""
par manets.visualizer.obstacleLossVisualizer faceNormalLineStyle "\"solid\""
par manets.visualizer.obstacleLossVisualizer faceNormalLineWidth 1
par manets.visualizer.obstacleLossVisualizer fadeOutMode "\"realTime\""
attr enum realTime,animationTime,simulationTime
par manets.visualizer.obstacleLossVisualizer fadeOutTime 1s
attr unit s
par manets.visualizer.obstacleLossVisualizer fadeOutAnimationSpeed 0
par manets.visualizer.obstacleLossVisualizer zIndex 0
par manets.visualizer.packetDropVisualizer typename "\"inet.visualizer.canvas.common.PacketDropCanvasVisualizer\""
par manets.visualizer.packetDropVisualizer visualizationTargetModule "\"^.^\""
par manets.visualizer.packetDropVisualizer visualizationSubjectModule "\"^.^\""
par manets.visualizer.packetDropVisualizer tags "\"\""
par manets.visualizer.packetDropVisualizer displayPacketDrops false
par manets.visualizer.packetDropVisualizer nodeFilter "\"*\""
attr mutable ""
par manets.visualizer.packetDropVisualizer interfaceFilter "\"*\""
attr mutable ""
par manets.visualizer.packetDropVisualizer packetFilter "(omnetpp::cValueHolder)holder: \"*\""
attr mutable ""
par manets.visualizer.packetDropVisualizer detailsFilter "\"*\""
attr mutable ""
par manets.visualizer.packetDropVisualizer icon "\"msg/packet_s\""
par manets.visualizer.packetDropVisualizer iconTintAmount 1
par manets.visualizer.packetDropVisualizer iconTintColor "\"dark\""
par manets.visualizer.packetDropVisualizer labelFormat "\"%n\""
attr mutable ""
par manets.visualizer.packetDropVisualizer labelFont "\"<default>\""
par manets.visualizer.packetDropVisualizer labelColor "\"black\""
par manets.visualizer.packetDropVisualizer fadeOutMode "\"realTime\""
attr enum realTime,animationTime,simulationTime
par manets.visualizer.packetDropVisualizer fadeOutTime 1s
attr unit s
par manets.visualizer.packetDropVisualizer fadeOutAnimationSpeed 0
par manets.visualizer.packetDropVisualizer zIndex 10
par manets.visualizer.packetDropVisualizer dx 32
par manets.visualizer.packetDropVisualizer dy 64
par manets.visualizer.packetFlowVisualizer typename "\"inet.visualizer.canvas.flow.PacketFlowCanvasVisualizer\""
par manets.visualizer.packetFlowVisualizer visualizationTargetModule "\"^.^\""
par manets.visualizer.packetFlowVisualizer visualizationSubjectModule "\"^.^\""
par manets.visualizer.packetFlowVisualizer tags "\"\""
par manets.visualizer.packetFlowVisualizer displayRoutes false
par manets.visualizer.packetFlowVisualizer startPathSignal "\"packetFlowStarted\""
par manets.visualizer.packetFlowVisualizer extendPathSignal "\"packetReceivedFromLower\""
par manets.visualizer.packetFlowVisualizer endPathSignal "\"packetFlowEnded\""
par manets.visualizer.packetFlowVisualizer nodeFilter "\"*\""
attr mutable ""
par manets.visualizer.packetFlowVisualizer packetFilter "(omnetpp::cValueHolder)holder: \"*\""
attr mutable ""
par manets.visualizer.packetFlowVisualizer lineColor "\"dark\""
attr enum light,dark
par manets.visualizer.packetFlowVisualizer lineStyle "\"dashed\""
par manets.visualizer.packetFlowVisualizer lineWidth 3
par manets.visualizer.packetFlowVisualizer lineSmooth false
par manets.visualizer.packetFlowVisualizer lineShift 16
par manets.visualizer.packetFlowVisualizer lineShiftMode "\"normal\""
par manets.visualizer.packetFlowVisualizer lineContactSpacing 3
par manets.visualizer.packetFlowVisualizer lineContactMode "\"rectangular\""
attr enum circular,rectangular
par manets.visualizer.packetFlowVisualizer labelFormat "\"%L %p pk (%l)\""
par manets.visualizer.packetFlowVisualizer labelFont "\"<default>, 8px\""
par manets.visualizer.packetFlowVisualizer labelColor "\"\""
par manets.visualizer.packetFlowVisualizer fadeOutMode "\"realTime\""
attr enum realTime,animationTime,simulationTime
par manets.visualizer.packetFlowVisualizer fadeOutTime 0s
attr unit s
par manets.visualizer.packetFlowVisualizer fadeOutAnimationSpeed 0
par manets.visualizer.packetFlowVisualizer zIndex 4
par manets.visualizer.queueVisualizer typename "\"inet.visualizer.canvas.common.QueueCanvasVisualizer\""
par manets.visualizer.queueVisualizer visualizationTargetModule "\"^.^\""
par manets.visualizer.queueVisualizer visualizationSubjectModule "\"^.^\""
par manets.visualizer.queueVisualizer tags "\"\""
par manets.visualizer.queueVisualizer networkNodeVisualizerModule "\"^.networkNodeVisualizer\""
par manets.visualizer.queueVisualizer displayQueues false
par manets.visualizer.queueVisualizer queueFilter "\"**\""
par manets.visualizer.queueVisualizer color "\"blue\""
par manets.visualizer.queueVisualizer width 8
par manets.visualizer.queueVisualizer height 24
par manets.visualizer.queueVisualizer spacing 2
par manets.visualizer.queueVisualizer placementHint "\"right\""
par manets.visualizer.queueVisualizer placementPriority 0
par manets.visualizer.queueVisualizer zIndex 10
par manets.visualizer.gateScheduleVisualizer typename "\"inet.visualizer.canvas.common.GateScheduleCanvasVisualizer\""
par manets.visualizer.gateScheduleVisualizer visualizationTargetModule "\"^.^\""
par manets.visualizer.gateScheduleVisualizer visualizationSubjectModule "\"^.^\""
par manets.visualizer.gateScheduleVisualizer tags "\"\""
par manets.visualizer.gateScheduleVisualizer networkNodeVisualizerModule "\"^.networkNodeVisualizer\""
par manets.visualizer.gateScheduleVisualizer displayGateSchedules false
par manets.visualizer.gateScheduleVisualizer labelFormat "\"%i %D\""
par manets.visualizer.gateScheduleVisualizer gateFilter "\"**\""
par manets.visualizer.gateScheduleVisualizer width 100
par manets.visualizer.gateScheduleVisualizer height 8
par manets.visualizer.gateScheduleVisualizer spacing 2
par manets.visualizer.gateScheduleVisualizer placementHint "\"right\""
par manets.visualizer.gateScheduleVisualizer placementPriority 0
par manets.visualizer.gateScheduleVisualizer displayDuration 0s
attr mutable ""
attr unit s
par manets.visualizer.gateScheduleVisualizer currentTimePosition 50
par manets.visualizer.gateScheduleVisualizer zIndex 10
par manets.visualizer.radioVisualizer typename "\"inet.visualizer.canvas.physicallayer.RadioCanvasVisualizer\""
par manets.visualizer.radioVisualizer visualizationTargetModule "\"^.^\""
par manets.visualizer.radioVisualizer visualizationSubjectModule "\"^.^\""
par manets.visualizer.radioVisualizer tags "\"\""
par manets.visualizer.radioVisualizer networkNodeVisualizerModule "\"^.networkNodeVisualizer\""
par manets.visualizer.radioVisualizer displayRadios false
par manets.visualizer.radioVisualizer displayRadioMode true
par manets.visualizer.radioVisualizer displayReceptionState true
par manets.visualizer.radioVisualizer displayTransmissionState true
par manets.visualizer.radioVisualizer displayAntennaLobes false
par manets.visualizer.radioVisualizer radioFilter "\"**\""
attr mutable ""
par manets.visualizer.radioVisualizer radioModeImages "\"block/process_vs block/timer_vs block/wrx_vs block/wtx_vs block/wrxtx_vs block/cogwheel_vs\""
par manets.visualizer.radioVisualizer receptionStateImages "\"- - misc/receiving misc/receiving\""
par manets.visualizer.radioVisualizer transmissionStateImages "\"- - misc/transmitting\""
par manets.visualizer.radioVisualizer width 16
par manets.visualizer.radioVisualizer height 16
par manets.visualizer.radioVisualizer placementHint "\"bottomRight\""
par manets.visualizer.radioVisualizer placementPriority 0
par manets.visualizer.radioVisualizer antennaLobeNormalize false
par manets.visualizer.radioVisualizer antennaLobeRelativeLabels false
par manets.visualizer.radioVisualizer antennaLobePlaneGlobal true
par manets.visualizer.radioVisualizer antennaLobePlane "\"view\""
attr enum view,xy,xz,yz
par manets.visualizer.radioVisualizer antennaLobeMode "\"logarithmic\""
attr enum logarithmic,linear
par manets.visualizer.radioVisualizer antennaLobeLogarithmicBase 10
par manets.visualizer.radioVisualizer antennaLobeLogarithmicScale 100
par manets.visualizer.radioVisualizer antennaLobeRadius 100
par manets.visualizer.radioVisualizer antennaLobeStep 10deg
attr unit deg
par manets.visualizer.radioVisualizer antennaLobeOpacity 0.25
par manets.visualizer.radioVisualizer antennaLobeLineSmooth true
par manets.visualizer.radioVisualizer antennaLobeLineColor "\"black\""
par manets.visualizer.radioVisualizer antennaLobeLineStyle "\"solid\""
par manets.visualizer.radioVisualizer antennaLobeLineWidth 1
par manets.visualizer.radioVisualizer antennaLobeFillColor "\"white\""
par manets.visualizer.radioVisualizer zIndex 10
par manets.visualizer.physicalLinkVisualizer typename "\"inet.visualizer.canvas.physicallayer.PhysicalLinkCanvasVisualizer\""
par manets.visualizer.physicalLinkVisualizer visualizationTargetModule "\"^.^\""
par manets.visualizer.physicalLinkVisualizer visualizationSubjectModule "\"^.^\""
par manets.visualizer.physicalLinkVisualizer tags "\"\""
par manets.visualizer.physicalLinkVisualizer displayLinks false
par manets.visualizer.physicalLinkVisualizer activityLevel "\"service\""
attr enum service,peer,protocol
par manets.visualizer.physicalLinkVisualizer nodeFilter "\"*\""
attr mutable ""
par manets.visualizer.physicalLinkVisualizer interfaceFilter "\"*\""
attr mutable ""
par manets.visualizer.physicalLinkVisualizer packetFilter "(omnetpp::cValueHolder)holder: \"*\""
attr mutable ""
par manets.visualizer.physicalLinkVisualizer lineColor "\"olive\""
par manets.visualizer.physicalLinkVisualizer lineStyle "\"dotted\""
par manets.visualizer.physicalLinkVisualizer lineWidth 3
par manets.visualizer.physicalLinkVisualizer lineShift 16
par manets.visualizer.physicalLinkVisualizer lineShiftMode "\"normal\""
par manets.visualizer.physicalLinkVisualizer lineContactSpacing 3
par manets.visualizer.physicalLinkVisualizer lineContactMode "\"rectangular\""
attr enum circular,rectangular
par manets.visualizer.physicalLinkVisualizer labelFormat "\"%n\""
par manets.visualizer.physicalLinkVisualizer labelFont "\"<default>, 8px\""
par manets.visualizer.physicalLinkVisualizer labelColor "\"olive\""
par manets.visualizer.physicalLinkVisualizer fadeOutMode "\"realTime\""
attr enum realTime,animationTime,simulationTime
par manets.visualizer.physicalLinkVisualizer fadeOutTime 1s
attr unit s
par manets.visualizer.physicalLinkVisualizer fadeOutAnimationSpeed 0
par manets.visualizer.physicalLinkVisualizer holdAnimationTime 0s
attr unit s
par manets.visualizer.physicalLinkVisualizer zIndex 1
par manets.visualizer.interfaceTableVisualizer typename "\"inet.visualizer.canvas.linklayer.InterfaceTableCanvasVisualizer\""
par manets.visualizer.interfaceTableVisualizer visualizationTargetModule "\"^.^\""
par manets.visualizer.interfaceTableVisualizer visualizationSubjectModule "\"^.^\""
par manets.visualizer.interfaceTableVisualizer tags "\"\""
par manets.visualizer.interfaceTableVisualizer networkNodeVisualizerModule "\"^.networkNodeVisualizer\""
par manets.visualizer.interfaceTableVisualizer displayInterfaceTables false
par manets.visualizer.interfaceTableVisualizer displayWiredInterfacesAtConnections true
par manets.visualizer.interfaceTableVisualizer displayBackground false
par manets.visualizer.interfaceTableVisualizer nodeFilter "\"*\""
attr mutable ""
par manets.visualizer.interfaceTableVisualizer interfaceFilter "\"not(lo*)\""
attr mutable ""
par manets.visualizer.interfaceTableVisualizer format "\"%N %\\\\%a%/%l\""
attr mutable ""
par manets.visualizer.interfaceTableVisualizer placementHint "\"top\""
par manets.visualizer.interfaceTableVisualizer placementPriority 0
par manets.visualizer.interfaceTableVisualizer font "\"<default>\""
par manets.visualizer.interfaceTableVisualizer textColor "\"#005030\""
par manets.visualizer.interfaceTableVisualizer backgroundColor "\"white\""
par manets.visualizer.interfaceTableVisualizer opacity 1
par manets.visualizer.interfaceTableVisualizer zIndex 10
par manets.visualizer.dataLinkVisualizer typename "\"inet.visualizer.canvas.linklayer.DataLinkCanvasVisualizer\""
par manets.visualizer.dataLinkVisualizer visualizationTargetModule "\"^.^\""
par manets.visualizer.dataLinkVisualizer visualizationSubjectModule "\"^.^\""
par manets.visualizer.dataLinkVisualizer tags "\"\""
par manets.visualizer.dataLinkVisualizer displayLinks true
par manets.visualizer.dataLinkVisualizer activityLevel "\"service\""
attr enum service,peer,protocol
par manets.visualizer.dataLinkVisualizer nodeFilter "\"*\""
attr mutable ""
par manets.visualizer.dataLinkVisualizer interfaceFilter "\"*\""
attr mutable ""
par manets.visualizer.dataLinkVisualizer packetFilter "(omnetpp::cValueHolder)holder: \"*\""
attr mutable ""
par manets.visualizer.dataLinkVisualizer lineColor "\"darkcyan\""
par manets.visualizer.dataLinkVisualizer lineStyle "\"solid\""
par manets.visualizer.dataLinkVisualizer lineWidth 3
par manets.visualizer.dataLinkVisualizer lineShift 16
par manets.visualizer.dataLinkVisualizer lineShiftMode "\"normal\""
par manets.visualizer.dataLinkVisualizer lineContactSpacing 3
par manets.visualizer.dataLinkVisualizer lineContactMode "\"rectangular\""
attr enum circular,rectangular
par manets.visualizer.dataLinkVisualizer labelFormat "\"%n\""
par manets.visualizer.dataLinkVisualizer labelFont "\"<default>, 8px\""
par manets.visualizer.dataLinkVisualizer labelColor "\"darkcyan\""
par manets.visualizer.dataLinkVisualizer fadeOutMode "\"realTime\""
attr enum realTime,animationTime,simulationTime
par manets.visualizer.dataLinkVisualizer fadeOutTime 1s
attr unit s
par manets.visualizer.dataLinkVisualizer fadeOutAnimationSpeed 0
par manets.visualizer.dataLinkVisualizer holdAnimationTime 0s
attr unit s
par manets.visualizer.dataLinkVisualizer zIndex 2
par manets.visualizer.linkBreakVisualizer typename "\"inet.visualizer.canvas.linklayer.LinkBreakCanvasVisualizer\""
par manets.visualizer.linkBreakVisualizer visualizationTargetModule "\"^.^\""
par manets.visualizer.linkBreakVisualizer visualizationSubjectModule "\"^.^\""
par manets.visualizer.linkBreakVisualizer tags "\"\""
par manets.visualizer.linkBreakVisualizer displayLinkBreaks false
par manets.visualizer.linkBreakVisualizer nodeFilter "\"*\""
attr mutable ""
par manets.visualizer.linkBreakVisualizer interfaceFilter "\"*\""
attr mutable ""
par manets.visualizer.linkBreakVisualizer packetFilter "(omnetpp::cValueHolder)holder: \"*\""
attr mutable ""
par manets.visualizer.linkBreakVisualizer icon "\"status/stop\""
par manets.visualizer.linkBreakVisualizer iconTintAmount 0
par manets.visualizer.linkBreakVisualizer iconTintColor "\"\""
par manets.visualizer.linkBreakVisualizer fadeOutMode "\"realTime\""
attr enum realTime,animationTime,simulationTime
par manets.visualizer.linkBreakVisualizer fadeOutTime 1s
attr unit s
par manets.visualizer.linkBreakVisualizer fadeOutAnimationSpeed 0
par manets.visualizer.linkBreakVisualizer zIndex 2
par manets.visualizer.ieee80211Visualizer typename "\"inet.visualizer.canvas.linklayer.Ieee80211CanvasVisualizer\""
par manets.visualizer.ieee80211Visualizer visualizationTargetModule "\"^.^\""
par manets.visualizer.ieee80211Visualizer visualizationSubjectModule "\"^.^\""
par manets.visualizer.ieee80211Visualizer tags "\"\""
par manets.visualizer.ieee80211Visualizer networkNodeVisualizerModule "\"^.networkNodeVisualizer\""
par manets.visualizer.ieee80211Visualizer displayAssociations false
par manets.visualizer.ieee80211Visualizer nodeFilter "\"*\""
attr mutable ""
par manets.visualizer.ieee80211Visualizer interfaceFilter "\"*\""
attr mutable ""
par manets.visualizer.ieee80211Visualizer minPower -85dBm
attr unit dBm
par manets.visualizer.ieee80211Visualizer maxPower -50dBm
attr unit dBm
par manets.visualizer.ieee80211Visualizer icons "\"misc/signal_power_0 misc/signal_power_1 misc/signal_power_2 misc/signal_power_3\""
par manets.visualizer.ieee80211Visualizer iconColor "\"dark\""
attr enum light,dark
par manets.visualizer.ieee80211Visualizer labelFont "\"<default>\""
par manets.visualizer.ieee80211Visualizer labelColor "\"black\""
par manets.visualizer.ieee80211Visualizer placementHint "\"top\""
par manets.visualizer.ieee80211Visualizer placementPriority 0
par manets.visualizer.ieee80211Visualizer zIndex 2
par manets.visualizer.networkRouteVisualizer typename "\"inet.visualizer.canvas.networklayer.NetworkRouteCanvasVisualizer\""
par manets.visualizer.networkRouteVisualizer visualizationTargetModule "\"^.^\""
par manets.visualizer.networkRouteVisualizer visualizationSubjectModule "\"^.^\""
par manets.visualizer.networkRouteVisualizer tags "\"\""
par manets.visualizer.networkRouteVisualizer displayRoutes true
par manets.visualizer.networkRouteVisualizer startPathSignal "\"packetReceivedFromUpper\""
par manets.visualizer.networkRouteVisualizer extendPathSignal "\"packetReceivedFromLower\""
par manets.visualizer.networkRouteVisualizer endPathSignal "\"packetSentToUpper\""
par manets.visualizer.networkRouteVisualizer nodeFilter "\"*\""
attr mutable ""
par manets.visualizer.networkRouteVisualizer packetFilter "(omnetpp::cValueHolder)holder: \"*\""
attr mutable ""
par manets.visualizer.networkRouteVisualizer lineColor "\"dark\""
attr enum light,dark
par manets.visualizer.networkRouteVisualizer lineStyle "\"solid\""
par manets.visualizer.networkRouteVisualizer lineWidth 3
par manets.visualizer.networkRouteVisualizer lineSmooth false
par manets.visualizer.networkRouteVisualizer lineShift 16
par manets.visualizer.networkRouteVisualizer lineShiftMode "\"normal\""
par manets.visualizer.networkRouteVisualizer lineContactSpacing 3
par manets.visualizer.networkRouteVisualizer lineContactMode "\"rectangular\""
attr enum circular,rectangular
par manets.visualizer.networkRouteVisualizer labelFormat "\"%n\""
par manets.visualizer.networkRouteVisualizer labelFont "\"<default>, 8px\""
par manets.visualizer.networkRouteVisualizer labelColor "\"\""
par manets.visualizer.networkRouteVisualizer fadeOutMode "\"realTime\""
attr enum realTime,animationTime,simulationTime
par manets.visualizer.networkRouteVisualizer fadeOutTime 1s
attr unit s
par manets.visualizer.networkRouteVisualizer fadeOutAnimationSpeed 0
par manets.visualizer.networkRouteVisualizer zIndex 3
par manets.visualizer.routingTableVisualizer typename "\"inet.visualizer.canvas.networklayer.RoutingTableCanvasVisualizer\""
par manets.visualizer.routingTableVisualizer visualizationTargetModule "\"^.^\""
par manets.visualizer.routingTableVisualizer visualizationSubjectModule "\"^.^\""
par manets.visualizer.routingTableVisualizer tags "\"\""
par manets.visualizer.routingTableVisualizer displayRoutingTables false
par manets.visualizer.routingTableVisualizer displayRoutesIndividually true
par manets.visualizer.routingTableVisualizer displayLabels true
par manets.visualizer.routingTableVisualizer destinationFilter "\"*\""
attr mutable ""
par manets.visualizer.routingTableVisualizer nodeFilter "\"*\""
attr mutable ""
par manets.visualizer.routingTableVisualizer lineColor "\"black\""
par manets.visualizer.routingTableVisualizer lineStyle "\"solid\""
par manets.visualizer.routingTableVisualizer lineWidth 2
par manets.visualizer.routingTableVisualizer lineShift 16
par manets.visualizer.routingTableVisualizer lineShiftMode "\"normal\""
par manets.visualizer.routingTableVisualizer lineContactSpacing 3
par manets.visualizer.routingTableVisualizer lineContactMode "\"rectangular\""
attr enum circular,rectangular
par manets.visualizer.routingTableVisualizer labelFormat "\"%d/%m -> %g (%n)\""
attr mutable ""
par manets.visualizer.routingTableVisualizer labelFont "\"<default>, 8px\""
par manets.visualizer.routingTableVisualizer labelColor "\"black\""
par manets.visualizer.routingTableVisualizer zIndex 0
par manets.visualizer.transportRouteVisualizer typename "\"inet.visualizer.canvas.transportlayer.TransportRouteCanvasVisualizer\""
par manets.visualizer.transportRouteVisualizer visualizationTargetModule "\"^.^\""
par manets.visualizer.transportRouteVisualizer visualizationSubjectModule "\"^.^\""
par manets.visualizer.transportRouteVisualizer tags "\"\""
par manets.visualizer.transportRouteVisualizer displayRoutes false
par manets.visualizer.transportRouteVisualizer startPathSignal "\"packetReceivedFromUpper\""
par manets.visualizer.transportRouteVisualizer extendPathSignal "\"packetReceivedFromLower\""
par manets.visualizer.transportRouteVisualizer endPathSignal "\"packetSentToUpper\""
par manets.visualizer.transportRouteVisualizer nodeFilter "\"*\""
attr mutable ""
par manets.visualizer.transportRouteVisualizer packetFilter "(omnetpp::cValueHolder)holder: \"*\""
attr mutable ""
par manets.visualizer.transportRouteVisualizer lineColor "\"dark\""
attr enum light,dark
par manets.visualizer.transportRouteVisualizer lineStyle "\"solid\""
par manets.visualizer.transportRouteVisualizer lineWidth 3
par manets.visualizer.transportRouteVisualizer lineSmooth false
par manets.visualizer.transportRouteVisualizer lineShift 16
par manets.visualizer.transportRouteVisualizer lineShiftMode "\"normal\""
par manets.visualizer.transportRouteVisualizer lineContactSpacing 3
par manets.visualizer.transportRouteVisualizer lineContactMode "\"rectangular\""
attr enum circular,rectangular
par manets.visualizer.transportRouteVisualizer labelFormat "\"%n\""
par manets.visualizer.transportRouteVisualizer labelFont "\"<default>, 8px\""
par manets.visualizer.transportRouteVisualizer labelColor "\"\""
par manets.visualizer.transportRouteVisualizer fadeOutMode "\"realTime\""
attr enum realTime,animationTime,simulationTime
par manets.visualizer.transportRouteVisualizer fadeOutTime 1s
attr unit s
par manets.visualizer.transportRouteVisualizer fadeOutAnimationSpeed 0
par manets.visualizer.transportRouteVisualizer zIndex 4
par manets.visualizer.transportConnectionVisualizer typename "\"inet.visualizer.canvas.transportlayer.TransportConnectionCanvasVisualizer\""
par manets.visualizer.transportConnectionVisualizer visualizationTargetModule "\"^.^\""
par manets.visualizer.transportConnectionVisualizer visualizationSubjectModule "\"^.^\""
par manets.visualizer.transportConnectionVisualizer tags "\"\""
par manets.visualizer.transportConnectionVisualizer networkNodeVisualizerModule "\"^.networkNodeVisualizer\""
par manets.visualizer.transportConnectionVisualizer displayTransportConnections false
par manets.visualizer.transportConnectionVisualizer sourceNodeFilter "\"*\""
attr mutable ""
par manets.visualizer.transportConnectionVisualizer sourcePortFilter "\"*\""
attr mutable ""
par manets.visualizer.transportConnectionVisualizer destinationNodeFilter "\"*\""
attr mutable ""
par manets.visualizer.transportConnectionVisualizer destinationPortFilter "\"*\""
attr mutable ""
par manets.visualizer.transportConnectionVisualizer icon "\"misc/marker_s\""
par manets.visualizer.transportConnectionVisualizer iconColor "\"dark\""
attr enum light,dark
par manets.visualizer.transportConnectionVisualizer labelFont "\"<default>\""
par manets.visualizer.transportConnectionVisualizer labelColor "\"black\""
par manets.visualizer.transportConnectionVisualizer placementHint "\"top\""
par manets.visualizer.transportConnectionVisualizer placementPriority 0
par manets.visualizer.transportConnectionVisualizer zIndex 4
par manets.visualizer.failureProtectionConfigurationVisualizer typename "\"inet.visualizer.canvas.configurator.FailureProtectionConfigurationCanvasVisualizer\""
par manets.visualizer.failureProtectionConfigurationVisualizer visualizationTargetModule "\"^.^\""
par manets.visualizer.failureProtectionConfigurationVisualizer visualizationSubjectModule "\"^.^\""
par manets.visualizer.failureProtectionConfigurationVisualizer tags "\"\""
par manets.visualizer.failureProtectionConfigurationVisualizer displayTrees false
par manets.visualizer.failureProtectionConfigurationVisualizer lineColor "\"dark\""
attr enum light,dark
par manets.visualizer.failureProtectionConfigurationVisualizer lineStyle "\"solid\""
par manets.visualizer.failureProtectionConfigurationVisualizer lineWidth 3
par manets.visualizer.failureProtectionConfigurationVisualizer lineSmooth false
par manets.visualizer.failureProtectionConfigurationVisualizer lineShift 16
par manets.visualizer.failureProtectionConfigurationVisualizer lineShiftMode "\"normal\""
par manets.visualizer.failureProtectionConfigurationVisualizer lineContactSpacing 3
par manets.visualizer.failureProtectionConfigurationVisualizer lineContactMode "\"rectangular\""
attr enum circular,rectangular
par manets.visualizer.failureProtectionConfigurationVisualizer failureProtectionConfiguratorModule "\"failureProtectionConfigurator\""
par manets.visualizer.failureProtectionConfigurationVisualizer streamFilter "\"*\""
par manets.visualizer.failureProtectionConfigurationVisualizer zIndex 3
par manets.visualizer.streamRedundancyConfigurationVisualizer typename "\"inet.visualizer.canvas.configurator.StreamRedundancyConfigurationCanvasVisualizer\""
par manets.visualizer.streamRedundancyConfigurationVisualizer visualizationTargetModule "\"^.^\""
par manets.visualizer.streamRedundancyConfigurationVisualizer visualizationSubjectModule "\"^.^\""
par manets.visualizer.streamRedundancyConfigurationVisualizer tags "\"\""
par manets.visualizer.streamRedundancyConfigurationVisualizer displayTrees false
par manets.visualizer.streamRedundancyConfigurationVisualizer lineColor "\"dark\""
attr enum light,dark
par manets.visualizer.streamRedundancyConfigurationVisualizer lineStyle "\"solid\""
par manets.visualizer.streamRedundancyConfigurationVisualizer lineWidth 3
par manets.visualizer.streamRedundancyConfigurationVisualizer lineSmooth false
par manets.visualizer.streamRedundancyConfigurationVisualizer lineShift 16
par manets.visualizer.streamRedundancyConfigurationVisualizer lineShiftMode "\"normal\""
par manets.visualizer.streamRedundancyConfigurationVisualizer lineContactSpacing 3
par manets.visualizer.streamRedundancyConfigurationVisualizer lineContactMode "\"rectangular\""
attr enum circular,rectangular
par manets.visualizer.streamRedundancyConfigurationVisualizer streamRedundancyConfiguratorModule "\"streamRedundancyConfigurator\""
par manets.visualizer.streamRedundancyConfigurationVisualizer streamFilter "\"*\""
par manets.visualizer.streamRedundancyConfigurationVisualizer zIndex 3
par manets.visualizer typename "\"inet.visualizer.canvas.integrated.IntegratedCanvasVisualizer\""
par manets.configurator typename "\"inet.networklayer.configurator.ipv4.Ipv4NetworkConfigurator\""
par manets.configurator minLinkWeight 0.001
par manets.configurator configureIsolatedNetworksSeparatly false
par manets.configurator config "<config>...</config> at content:1"
par manets.configurator assignAddresses true
par manets.configurator assignUniqueAddresses true
par manets.configurator assignDisjunctSubnetAddresses true
par manets.configurator addStaticRoutes true
par manets.configurator addDefaultRoutes true
par manets.configurator addSubnetRoutes true
par manets.configurator addDirectRoutes true
par manets.configurator optimizeRoutes true
par manets.configurator dumpTopology false
par manets.configurator dumpLinks false
par manets.configurator dumpAddresses false
par manets.configurator dumpRoutes false
par manets.configurator dumpConfig "\"\""
par manets.routingTableRecorder typename "\"inet.networklayer.ipv4.RoutingTableRecorder\""
par manets.routingTableRecorder enabled true
par manets.scenarioManager typename "\"inet.common.scenario.ScenarioManager\""
par manets.scenarioManager script "<scenario/> at content:1"
par manets.nodoFijo1.radioIn[0].channel typename "\"ned.IdealChannel\""
par manets.nodoFijo1.mobility typename "\"inet.mobility.static.StationaryMobility\""
par manets.nodoFijo1.mobility subjectModule "\"^\""
par manets.nodoFijo1.mobility coordinateSystemModule "\"\""
par manets.nodoFijo1.mobility displayStringTextFormat "\"p: %p\\nv: %v\""
attr mutable ""
par manets.nodoFijo1.mobility updateDisplayString true
par manets.nodoFijo1.mobility constraintAreaMinX 0m
attr unit m
par manets.nodoFijo1.mobility constraintAreaMinY 0m
attr unit m
par manets.nodoFijo1.mobility constraintAreaMinZ 0m
attr unit m
par manets.nodoFijo1.mobility constraintAreaMaxX 1200m
attr unit m
par manets.nodoFijo1.mobility constraintAreaMaxY 600m
attr unit m
par manets.nodoFijo1.mobility constraintAreaMaxZ 0m
attr unit m
par manets.nodoFijo1.mobility initialX 0m
attr unit m
par manets.nodoFijo1.mobility initialY 300m
attr unit m
par manets.nodoFijo1.mobility initialZ 0m
attr unit m
par manets.nodoFijo1.mobility initialLatitude "nan deg"
attr unit deg
par manets.nodoFijo1.mobility initialLongitude "nan deg"
attr unit deg
par manets.nodoFijo1.mobility initialAltitude 0m
attr unit m
par manets.nodoFijo1.mobility initialHeading 0deg
attr unit deg
par manets.nodoFijo1.mobility initialElevation 0deg
attr unit deg
par manets.nodoFijo1.mobility initialBank 0deg
attr unit deg
par manets.nodoFijo1.mobility initFromDisplayString false
par manets.nodoFijo1.mobility updateFromDisplayString true
par manets.nodoFijo1.interfaceTable typename "\"inet.networklayer.common.InterfaceTable\""
par manets.nodoFijo1.interfaceTable displayAddresses false
par manets.nodoFijo1.cb typename "\"inet.common.MessageDispatcher\""
par manets.nodoFijo1.cb displayStringTextFormat "\"processed %p pk (%l)\""
par manets.nodoFijo1.cb forwardServiceRegistration true
par manets.nodoFijo1.cb forwardProtocolRegistration true
par manets.nodoFijo1.bl typename "\"inet.common.MessageDispatcher\""
par manets.nodoFijo1.bl displayStringTextFormat "\"processed %p pk (%l)\""
par manets.nodoFijo1.bl forwardServiceRegistration true
par manets.nodoFijo1.bl forwardProtocolRegistration true
par manets.nodoFijo1.li typename "\"inet.common.MessageDispatcher\""
par manets.nodoFijo1.li displayStringTextFormat "\"processed %p pk (%l)\""
par manets.nodoFijo1.li forwardServiceRegistration true
par manets.nodoFijo1.li forwardProtocolRegistration true
par manets.nodoFijo1.lo[0].upperLayerIn.channel typename "\"ned.IdealChannel\""
par manets.nodoFijo1.lo[0].lo.upperLayerOut.channel typename "\"ned.IdealChannel\""
par manets.nodoFijo1.lo[0].lo typename "\"inet.linklayer.loopback.Loopback\""
par manets.nodoFijo1.lo[0].lo interfaceTableModule "\"manets.nodoFijo1.interfaceTable\""
par manets.nodoFijo1.lo[0].lo mtu 4470B
attr unit B
scalar manets.nodoFijo1.lo[0].lo rcvdPkFromHl:count 0
attr interpolationmode none
attr recordingmode count
attr source packetReceivedFromUpper
attr title "packets received from higher layer, count"
scalar manets.nodoFijo1.lo[0].lo rcvdPkFromHl:sum(packetBytes) 0
attr interpolationmode none
attr recordingmode sum(packetBytes)
attr source packetReceivedFromUpper
attr title "packets received from higher layer, sum(packetBytes)"
scalar manets.nodoFijo1.lo[0].lo passedUpPk:count 0
attr interpolationmode none
attr recordingmode count
attr source packetSentToUpper
attr title "packets passed to higher layer, count"
scalar manets.nodoFijo1.lo[0].lo passedUpPk:sum(packetBytes) 0
attr interpolationmode none
attr recordingmode sum(packetBytes)
attr source packetSentToUpper
attr title "packets passed to higher layer, sum(packetBytes)"
par manets.nodoFijo1.lo[0] typename "\"inet.linklayer.loopback.LoopbackInterface\""
par manets.nodoFijo1.lo[0] displayStringTextFormat "\"%a (%i)\\n%m\""
par manets.nodoFijo1.lo[0] recordPcap false
par manets.nodoFijo1.lo[0] numPcapRecorders 0
par manets.nodoFijo1.lo[0] interfaceTableModule "\"manets.nodoFijo1.interfaceTable\""
scalar manets.nodoFijo1.lo[0] packetDropInterfaceDown:count 0
attr interpolationmode none
attr recordingmode count
attr source packetDropReasonIsInterfaceDown(packetDropped)
attr title "packet drops: interface down, count"
scalar manets.nodoFijo1.lo[0] packetDropInterfaceDown:sum(packetBytes) 0
attr interpolationmode none
attr recordingmode sum(packetBytes)
attr source packetDropReasonIsInterfaceDown(packetDropped)
attr title "packet drops: interface down, sum(packetBytes)"
scalar manets.nodoFijo1.lo[0] packetDropNoCarrier:count 0
attr interpolationmode none
attr recordingmode count
attr source packetDropReasonIsNoCarrier(packetDropped)
attr title "packet drops: no carrier, count"
scalar manets.nodoFijo1.lo[0] packetDropNoCarrier:sum(packetBytes) 0
attr interpolationmode none
attr recordingmode sum(packetBytes)
attr source packetDropReasonIsNoCarrier(packetDropped)
attr title "packet drops: no carrier, sum(packetBytes)"
par manets.nodoFijo1.wlan[0].upperLayerIn.channel typename "\"ned.IdealChannel\""
par manets.nodoFijo1.wlan[0].radioIn.channel typename "\"ned.IdealChannel\""
par manets.nodoFijo1.wlan[0].mac.upperLayerOut.channel typename "\"ned.IdealChannel\""
par manets.nodoFijo1.wlan[0].queue typename "\"inet.queueing.queue.DropTailQueue\""
par manets.nodoFijo1.wlan[0].queue displayStringTextFormat "\"contains %p pk (%l) pushed %u\\npulled %o removed %r dropped %d\""
par manets.nodoFijo1.wlan[0].queue packetCapacity 100
par manets.nodoFijo1.wlan[0].queue dataCapacity -1b
attr unit b
par manets.nodoFijo1.wlan[0].queue dropperClass "\"inet::queueing::PacketAtCollectionEndDropper\""
par manets.nodoFijo1.wlan[0].queue comparatorClass "\"\""
par manets.nodoFijo1.wlan[0].queue bufferModule "\"\""
scalar manets.nodoFijo1.wlan[0].queue queueLength:last 0
attr autoWarmupFilter false
attr interpolationmode sample-hold
attr recordingmode last
attr source "warmup(atomic(constant0(packetPushEnded) + count(packetPushStarted) - count(packetPulled) - count(packetRemoved) - count(packetDropped)))"
attr title "queue length, last"
attr unit pk
scalar manets.nodoFijo1.wlan[0].queue queueLength:max 0
attr autoWarmupFilter false
attr interpolationmode sample-hold
attr recordingmode max
attr source "warmup(atomic(constant0(packetPushEnded) + count(packetPushStarted) - count(packetPulled) - count(packetRemoved) - count(packetDropped)))"
attr title "queue length, max"
attr unit pk
scalar manets.nodoFijo1.wlan[0].queue queueLength:timeavg 0
attr autoWarmupFilter false
attr interpolationmode sample-hold
attr recordingmode timeavg
attr source "warmup(atomic(constant0(packetPushEnded) + count(packetPushStarted) - count(packetPulled) - count(packetRemoved) - count(packetDropped)))"
attr title "queue length, timeavg"
attr unit pk
scalar manets.nodoFijo1.wlan[0].queue queueBitLength:last 0
attr autoWarmupFilter false
attr interpolationmode sample-hold
attr recordingmode last
attr source "warmup(atomic(constant0(packetPushEnded) + sum(packetLength(packetPushStarted)) - sum(packetLength(packetPulled)) - sum(packetLength(packetRemoved)) - sum(packetLength(packetDropped))))"
attr title "queue bit length, last"
attr unit b
scalar manets.nodoFijo1.wlan[0].queue queueBitLength:max 0
attr autoWarmupFilter false
attr interpolationmode sample-hold
attr recordingmode max
attr source "warmup(atomic(constant0(packetPushEnded) + sum(packetLength(packetPushStarted)) - sum(packetLength(packetPulled)) - sum(packetLength(packetRemoved)) - sum(packetLength(packetDropped))))"
attr title "queue bit length, max"
attr unit b
scalar manets.nodoFijo1.wlan[0].queue queueBitLength:timeavg 0
attr autoWarmupFilter false
attr interpolationmode sample-hold
attr recordingmode timeavg
attr source "warmup(atomic(constant0(packetPushEnded) + sum(packetLength(packetPushStarted)) - sum(packetLength(packetPulled)) - sum(packetLength(packetRemoved)) - sum(packetLength(packetDropped))))"
attr title "queue bit length, timeavg"
attr unit b
statistic manets.nodoFijo1.wlan[0].queue queueingTime:histogram
field count 8
field mean 0
field stddev 0
field min 0
field max 0
field sum 0
field sqrsum 0
attr interpolationmode none
attr recordingmode histogram
attr source queueingTime(packetPulled)
attr title "queueing times"
attr unit s
bin	-inf	0
bin	-0.5	0
bin	-0.48	0
bin	-0.46	0
bin	-0.44	0
bin	-0.42	0
bin	-0.4	0
bin	-0.38	0
bin	-0.36	0
bin	-0.34	0
bin	-0.32	0
bin	-0.3	0
bin	-0.28	0
bin	-0.26	0
bin	-0.24	0
bin	-0.22	0
bin	-0.2	0
bin	-0.18	0
bin	-0.16	0
bin	-0.14	0
bin	-0.12	0
bin	-0.1	0
bin	-0.08	0
bin	-0.06	0
bin	-0.04	0
bin	-0.02	0
bin	0	8
bin	0.02	0
bin	0.04	0
bin	0.06	0
bin	0.08	0
bin	0.1	0
bin	0.12	0
bin	0.14	0
bin	0.16	0
bin	0.18	0
bin	0.2	0
bin	0.22	0
bin	0.24	0
bin	0.26	0
bin	0.28	0
bin	0.3	0
bin	0.32	0
bin	0.34	0
bin	0.36	0
bin	0.38	0
bin	0.4	0
bin	0.42	0
bin	0.44	0
bin	0.46	0
bin	0.48	0
bin	0.5	0
scalar manets.nodoFijo1.wlan[0].queue outgoingPackets:count 8
attr recordingmode count
attr source packetPulled
attr title "outgoing packets, count"
attr unit pk
scalar manets.nodoFijo1.wlan[0].queue outgoingPacketLengths:sum 1792
attr interpolationmode none
attr recordingmode sum
attr source packetLength(packetPulled)
attr title "outgoing packet lengths, sum"
attr unit b
statistic manets.nodoFijo1.wlan[0].queue outgoingPacketLengths:histogram
field count 8
field mean 224
field stddev 0
field min 224
field max 224
field sum 1792
field sqrsum 401408
attr interpolationmode none
attr recordingmode histogram
attr source packetLength(packetPulled)
attr title "outgoing packet lengths"
attr unit b
bin	-inf	0
bin	223	0
bin	224	8
bin	225	0
statistic manets.nodoFijo1.wlan[0].queue flowQueueingTime:histogram
field count 0
field mean nan
field stddev nan
field min nan
field max nan
field sum 0
field sqrsum 0
attr interpolationmode none
attr recordingmode histogram
attr source queueingTime(demuxFlow(packetPulled))
attr title "flow queueing times"
attr unit s
bin	-inf	0
bin	0	0
bin	1	0
scalar manets.nodoFijo1.wlan[0].queue incomingPackets:count 8
attr recordingmode count
attr source packetPushStarted
attr title "incoming packets, count"
attr unit pk
scalar manets.nodoFijo1.wlan[0].queue incomingPacketLengths:sum 1792
attr interpolationmode none
attr recordingmode sum
attr source packetLength(packetPushStarted)
attr title "incoming packet lengths, sum"
attr unit b
statistic manets.nodoFijo1.wlan[0].queue incomingPacketLengths:histogram
field count 8
field mean 224
field stddev 0
field min 224
field max 224
field sum 1792
field sqrsum 401408
attr interpolationmode none
attr recordingmode histogram
attr source packetLength(packetPushStarted)
attr title "incoming packet lengths"
attr unit b
bin	-inf	0
bin	223	0
bin	224	8
bin	225	0
scalar manets.nodoFijo1.wlan[0].queue droppedPacketsQueueOverflow:count 0
attr interpolationmode none
attr recordingmode count
attr source packetDropReasonIsQueueOverflow(packetDropped)
attr title "dropped packets: queue overflow, count"
attr unit pk
scalar manets.nodoFijo1.wlan[0].queue droppedPacketLengthsQueueOverflow:sum 0
attr interpolationmode none
attr recordingmode sum
attr source packetLength(packetDropReasonIsQueueOverflow(packetDropped))
attr title "dropped packet lengths: queue overflow, sum"
attr unit b
par manets.nodoFijo1.wlan[0].mac typename "\"inet.linklayer.acking.AckingMac\""
par manets.nodoFijo1.wlan[0].mac interfaceTableModule "\"manets.nodoFijo1.interfaceTable\""
par manets.nodoFijo1.wlan[0].mac address "\"auto\""
attr mutable ""
par manets.nodoFijo1.wlan[0].mac bitrate 2e+06bps
attr unit bps
par manets.nodoFijo1.wlan[0].mac mtu 4470B
attr unit B
par manets.nodoFijo1.wlan[0].mac headerLength 20B
attr unit B
par manets.nodoFijo1.wlan[0].mac promiscuous false
par manets.nodoFijo1.wlan[0].mac fullDuplex true
par manets.nodoFijo1.wlan[0].mac useAck true
par manets.nodoFijo1.wlan[0].mac ackTimeout 0.1s
attr unit s
scalar manets.nodoFijo1.wlan[0].mac rcvdPkFromLl:count 0
attr interpolationmode none
attr recordingmode count
attr source packetReceivedFromLower
attr title "packets received from lower layer, count"
scalar manets.nodoFijo1.wlan[0].mac rcvdPkFromLl:sum(packetBytes) 0
attr interpolationmode none
attr recordingmode sum(packetBytes)
attr source packetReceivedFromLower
attr title "packets received from lower layer, sum(packetBytes)"
scalar manets.nodoFijo1.wlan[0].mac sentDownPk:count 8
attr interpolationmode none
attr recordingmode count
attr source packetSentToLower
attr title "packets sent to lower layer, count"
scalar manets.nodoFijo1.wlan[0].mac sentDownPk:sum(packetBytes) 384
attr interpolationmode none
attr recordingmode sum(packetBytes)
attr source packetSentToLower
attr title "packets sent to lower layer, sum(packetBytes)"
scalar manets.nodoFijo1.wlan[0].mac rcvdPkFromHl:count 8
attr interpolationmode none
attr recordingmode count
attr source packetReceivedFromUpper
attr title "packets received from higher layer, count"
scalar manets.nodoFijo1.wlan[0].mac rcvdPkFromHl:sum(packetBytes) 224
attr interpolationmode none
attr recordingmode sum(packetBytes)
attr source packetReceivedFromUpper
attr title "packets received from higher layer, sum(packetBytes)"
scalar manets.nodoFijo1.wlan[0].mac passedUpPk:count 0
attr interpolationmode none
attr recordingmode count
attr source packetSentToUpper
attr title "packets passed to higher layer, count"
scalar manets.nodoFijo1.wlan[0].mac passedUpPk:sum(packetBytes) 0
attr interpolationmode none
attr recordingmode sum(packetBytes)
attr source packetSentToUpper
attr title "packets passed to higher layer, sum(packetBytes)"
scalar manets.nodoFijo1.wlan[0].mac packetDropIncorrectlyReceived:count 0
attr interpolationmode none
attr recordingmode count
attr source packetDropReasonIsIncorrectlyReceived(packetDropped)
attr title "packet drop: incorrectly received, count"
scalar manets.nodoFijo1.wlan[0].mac packetDropIncorrectlyReceived:sum(packetBytes) 0
attr interpolationmode none
attr recordingmode sum(packetBytes)
attr source packetDropReasonIsIncorrectlyReceived(packetDropped)
attr title "packet drop: incorrectly received, sum(packetBytes)"
scalar manets.nodoFijo1.wlan[0].mac packetDropInterfaceDown:count 0
attr interpolationmode none
attr recordingmode count
attr source packetDropReasonIsInterfaceDown(packetDropped)
attr title "packet drop: interface down, count"
scalar manets.nodoFijo1.wlan[0].mac packetDropInterfaceDown:sum(packetBytes) 0
attr interpolationmode none
attr recordingmode sum(packetBytes)
attr source packetDropReasonIsInterfaceDown(packetDropped)
attr title "packet drop: interface down, sum(packetBytes)"
scalar manets.nodoFijo1.wlan[0].mac packetDropNotAddressedToUs:count 0
attr interpolationmode none
attr recordingmode count
attr source packetDropReasonIsNotAddressedToUs(packetDropped)
attr title "packet drop: not addressed to us, count"
scalar manets.nodoFijo1.wlan[0].mac packetDropNotAddressedToUs:sum(packetBytes) 0
attr interpolationmode none
attr recordingmode sum(packetBytes)
attr source packetDropReasonIsNotAddressedToUs(packetDropped)
attr title "packet drop: not addressed to us, sum(packetBytes)"
scalar manets.nodoFijo1.wlan[0].mac linkBroken:count 0
attr interpolationmode none
attr recordingmode count
attr source linkBroken
attr title "link break, count"
par manets.nodoFijo1.wlan[0].radio.antenna typename "\"inet.physicallayer.wireless.common.antenna.IsotropicAntenna\""
par manets.nodoFijo1.wlan[0].radio.antenna mobilityModule "\"^.^.^.mobility\""
par manets.nodoFijo1.wlan[0].radio.antenna numAntennas 1
par manets.nodoFijo1.wlan[0].radio.transmitter typename "\"inet.physicallayer.wireless.unitdisk.UnitDiskTransmitter\""
par manets.nodoFijo1.wlan[0].radio.transmitter preambleDuration 0s
attr unit s
par manets.nodoFijo1.wlan[0].radio.transmitter headerLength 96b
attr unit b
par manets.nodoFijo1.wlan[0].radio.transmitter bitrate 2e+06bps
attr unit bps
par manets.nodoFijo1.wlan[0].radio.transmitter communicationRange 400m
attr unit m
par manets.nodoFijo1.wlan[0].radio.transmitter interferenceRange 0m
attr unit m
par manets.nodoFijo1.wlan[0].radio.transmitter detectionRange 0m
attr unit m
par manets.nodoFijo1.wlan[0].radio.receiver typename "\"inet.physicallayer.wireless.unitdisk.UnitDiskReceiver\""
par manets.nodoFijo1.wlan[0].radio.receiver ignoreInterference true
par manets.nodoFijo1.wlan[0].radio typename "\"inet.physicallayer.wireless.unitdisk.UnitDiskRadio\""
par manets.nodoFijo1.wlan[0].radio radioMediumModule "\"radioMedium\""
par manets.nodoFijo1.wlan[0].radio energySourceModule "\"\""
par manets.nodoFijo1.wlan[0].radio initialRadioMode "\"off\""
attr enum off,sleep,receiver,transmitter,transceiver
par manets.nodoFijo1.wlan[0].radio switchingTimes "\"ms 0 0 0 0 0 0 0 0 0 0 0 0 0 0 0 0 0 0 0 0 0 0 0 0 0\""
par manets.nodoFijo1.wlan[0].radio sendRawBytes false
par manets.nodoFijo1.wlan[0].radio separateTransmissionParts false
par manets.nodoFijo1.wlan[0].radio separateReceptionParts false
par manets.nodoFijo1.wlan[0].radio displayCommunicationRange false
par manets.nodoFijo1.wlan[0].radio displayInterferenceRange false
statistic manets.nodoFijo1.wlan[0].radio minSnir:histogram
field count 0
field mean nan
field stddev nan
field min nan
field max nan
field sum 0
field sqrsum 0
attr recordingmode histogram
attr source minimumSnir(packetSentToUpper)
attr title "Min SNIR"
bin	-inf	0
bin	0	0
bin	1	0
statistic manets.nodoFijo1.wlan[0].radio packetErrorRate:histogram
field count 0
field mean nan
field stddev nan
field min nan
field max nan
field sum 0
field sqrsum 0
attr recordingmode histogram
attr source packetErrorRate(packetSentToUpper)
attr title "Packet error rate"
bin	-inf	0
bin	0	0
bin	1	0
statistic manets.nodoFijo1.wlan[0].radio bitErrorRate:histogram
field count 0
field mean nan
field stddev nan
field min nan
field max nan
field sum 0
field sqrsum 0
attr recordingmode histogram
attr source bitErrorRate(packetSentToUpper)
attr title "Bit error rate"
bin	-inf	0
bin	0	0
bin	1	0
statistic manets.nodoFijo1.wlan[0].radio symbolErrorRate:histogram
field count 0
field mean nan
field stddev nan
field min nan
field max nan
field sum 0
field sqrsum 0
attr recordingmode histogram
attr source symbolErrorRate(packetSentToUpper)
attr title "Symbol error rate"
bin	-inf	0
bin	0	0
bin	1	0
scalar manets.nodoFijo1.wlan[0].radio transmissionState:count 17
attr interpolationmode sample-hold
attr recordingmode count
attr source transmissionStateChanged
attr title "Radio transmission state, count"
scalar manets.nodoFijo1.wlan[0].radio receptionState:count 1
attr interpolationmode sample-hold
attr recordingmode count
attr source receptionStateChanged
attr title "Radio reception state, count"
scalar manets.nodoFijo1.wlan[0].radio radioMode:count 3
attr interpolationmode sample-hold
attr recordingmode count
attr source radioModeChanged
attr title "Radio mode, count"
par manets.nodoFijo1.wlan[0] typename "\"inet.linklayer.acking.AckingWirelessInterface\""
par manets.nodoFijo1.wlan[0] displayStringTextFormat "\"%a (%i)\\n%m\""
par manets.nodoFijo1.wlan[0] recordPcap false
par manets.nodoFijo1.wlan[0] numPcapRecorders 0
par manets.nodoFijo1.wlan[0] interfaceTableModule "\"manets.nodoFijo1.interfaceTable\""
par manets.nodoFijo1.wlan[0] energySourceModule "\"\""
par manets.nodoFijo1.wlan[0] bitrate 2e+06bps
attr unit bps
scalar manets.nodoFijo1.wlan[0] packetDropInterfaceDown:count 0
attr interpolationmode none
attr recordingmode count
attr source packetDropReasonIsInterfaceDown(packetDropped)
attr title "packet drops: interface down, count"
scalar manets.nodoFijo1.wlan[0] packetDropInterfaceDown:sum(packetBytes) 0
attr interpolationmode none
attr recordingmode sum(packetBytes)
attr source packetDropReasonIsInterfaceDown(packetDropped)
attr title "packet drops: interface down, sum(packetBytes)"
scalar manets.nodoFijo1.wlan[0] packetDropNoCarrier:count 0
attr interpolationmode none
attr recordingmode count
attr source packetDropReasonIsNoCarrier(packetDropped)
attr title "packet drops: no carrier, count"
scalar manets.nodoFijo1.wlan[0] packetDropNoCarrier:sum(packetBytes) 0
attr interpolationmode none
attr recordingmode sum(packetBytes)
attr source packetDropReasonIsNoCarrier(packetDropped)
attr title "packet drops: no carrier, sum(packetBytes)"
par manets.nodoFijo1.ipv4.transportIn.channel typename "\"ned.IdealChannel\""
par manets.nodoFijo1.ipv4.up.out[0].channel typename "\"ned.IdealChannel\""
par manets.nodoFijo1.ipv4.lp.out[2].channel typename "\"ned.IdealChannel\""
par manets.nodoFijo1.ipv4.ifIn.channel typename "\"ned.IdealChannel\""
par manets.nodoFijo1.ipv4.configurator typename "\"inet.networklayer.configurator.ipv4.Ipv4NodeConfigurator\""
par manets.nodoFijo1.ipv4.configurator interfaceTableModule "\"manets.nodoFijo1.interfaceTable\""
par manets.nodoFijo1.ipv4.configurator routingTableModule "\"manets.nodoFijo1.ipv4.routingTable\""
par manets.nodoFijo1.ipv4.configurator networkConfiguratorModule "\"configurator\""
par manets.nodoFijo1.ipv4.configurator configureRoutingTable true
par manets.nodoFijo1.ipv4.routingTable typename "\"inet.networklayer.ipv4.Ipv4RoutingTable\""
par manets.nodoFijo1.ipv4.routingTable interfaceTableModule "\"manets.nodoFijo1.interfaceTable\""
par manets.nodoFijo1.ipv4.routingTable routerId "\"auto\""
par manets.nodoFijo1.ipv4.routingTable netmaskRoutes "\"*\""
par manets.nodoFijo1.ipv4.routingTable forwarding true
par manets.nodoFijo1.ipv4.routingTable multicastForwarding false
par manets.nodoFijo1.ipv4.routingTable useAdminDist false
par manets.nodoFijo1.ipv4.routingTable routingFile "\"\""
par manets.nodoFijo1.ipv4.natTable typename "\"inet.networklayer.ipv4.Ipv4NatTable\""
par manets.nodoFijo1.ipv4.natTable networkProtocolModule "\"^.ip\""
par manets.nodoFijo1.ipv4.natTable config "<config/> at content:1"
par manets.nodoFijo1.ipv4.up typename "\"inet.common.MessageDispatcher\""
par manets.nodoFijo1.ipv4.up displayStringTextFormat "\"processed %p pk (%l)\""
par manets.nodoFijo1.ipv4.up forwardServiceRegistration true
par manets.nodoFijo1.ipv4.up forwardProtocolRegistration true
par manets.nodoFijo1.ipv4.igmp typename "\"inet.networklayer.ipv4.Igmpv2\""
par manets.nodoFijo1.ipv4.igmp interfaceTableModule "\"manets.nodoFijo1.interfaceTable\""
par manets.nodoFijo1.ipv4.igmp routingTableModule "\"manets.nodoFijo1.ipv4.routingTable\""
par manets.nodoFijo1.ipv4.igmp crcMode "\"declared\""
attr enum declared,computed
par manets.nodoFijo1.ipv4.igmp enabled true
par manets.nodoFijo1.ipv4.igmp robustnessVariable 2
par manets.nodoFijo1.ipv4.igmp queryInterval 125s
attr unit s
par manets.nodoFijo1.ipv4.igmp queryResponseInterval 10s
attr unit s
par manets.nodoFijo1.ipv4.igmp groupMembershipInterval 260s
attr unit s
par manets.nodoFijo1.ipv4.igmp otherQuerierPresentInterval 255s
attr unit s
par manets.nodoFijo1.ipv4.igmp startupQueryInterval 31.25s
attr unit s
par manets.nodoFijo1.ipv4.igmp startupQueryCount 2
par manets.nodoFijo1.ipv4.igmp lastMemberQueryInterval 1s
attr unit s
par manets.nodoFijo1.ipv4.igmp lastMemberQueryCount 2
par manets.nodoFijo1.ipv4.igmp unsolicitedReportInterval 10s
attr unit s
par manets.nodoFijo1.ipv4.icmp typename "\"inet.networklayer.ipv4.Icmp\""
par manets.nodoFijo1.ipv4.icmp interfaceTableModule "\"manets.nodoFijo1.interfaceTable\""
par manets.nodoFijo1.ipv4.icmp routingTableModule "\"manets.nodoFijo1.ipv4.routingTable\""
par manets.nodoFijo1.ipv4.icmp crcMode "\"declared\""
attr enum declared,computed
attr mutable ""
par manets.nodoFijo1.ipv4.icmp quoteLength 8B
attr mutable ""
attr unit B
par manets.nodoFijo1.ipv4.mp typename "\"inet.common.MessageDispatcher\""
par manets.nodoFijo1.ipv4.mp displayStringTextFormat "\"processed %p pk (%l)\""
par manets.nodoFijo1.ipv4.mp forwardServiceRegistration true
par manets.nodoFijo1.ipv4.mp forwardProtocolRegistration true
par manets.nodoFijo1.ipv4.ip typename "\"inet.networklayer.ipv4.Ipv4\""
par manets.nodoFijo1.ipv4.ip interfaceTableModule "\"manets.nodoFijo1.interfaceTable\""
par manets.nodoFijo1.ipv4.ip routingTableModule "\"manets.nodoFijo1.ipv4.routingTable\""
par manets.nodoFijo1.ipv4.ip arpModule "\"manets.nodoFijo1.ipv4.arp\""
par manets.nodoFijo1.ipv4.ip icmpModule "\"manets.nodoFijo1.ipv4.icmp\""
par manets.nodoFijo1.ipv4.ip crcMode "\"declared\""
attr enum declared,computed
par manets.nodoFijo1.ipv4.ip timeToLive 32
par manets.nodoFijo1.ipv4.ip multicastTimeToLive 32
par manets.nodoFijo1.ipv4.ip fragmentTimeout 60s
attr unit s
par manets.nodoFijo1.ipv4.ip limitedBroadcast false
par manets.nodoFijo1.ipv4.ip directBroadcastInterfaces "\"\""
scalar manets.nodoFijo1.ipv4.ip packetDropAddressResolutionFailed:count 24
attr interpolationmode none
attr recordingmode count
attr source packetDropReasonIsAddressResolutionFailed(packetDropped)
attr title "packet drop: address resolution failed, count"
scalar manets.nodoFijo1.ipv4.ip packetDropAddressResolutionFailed:sum(packetBytes) 1872
attr interpolationmode none
attr recordingmode sum(packetBytes)
attr source packetDropReasonIsAddressResolutionFailed(packetDropped)
attr title "packet drop: address resolution failed, sum(packetBytes)"
scalar manets.nodoFijo1.ipv4.ip packetDropHopLimitReached:count 0
attr interpolationmode none
attr recordingmode count
attr source packetDropReasonIsHopLimitReached(packetDropped)
attr title "packet drop: hop limit reached, count"
scalar manets.nodoFijo1.ipv4.ip packetDropHopLimitReached:sum(packetBytes) 0
attr interpolationmode none
attr recordingmode sum(packetBytes)
attr source packetDropReasonIsHopLimitReached(packetDropped)
attr title "packet drop: hop limit reached, sum(packetBytes)"
scalar manets.nodoFijo1.ipv4.ip packetDropForwardingDisabled:count 0
attr interpolationmode none
attr recordingmode count
attr source packetDropReasonIsForwardingDisabled(packetDropped)
attr title "packet drop: forwarding disabled, count"
scalar manets.nodoFijo1.ipv4.ip packetDropForwardingDisabled:sum(packetBytes) 0
attr interpolationmode none
attr recordingmode sum(packetBytes)
attr source packetDropReasonIsForwardingDisabled(packetDropped)
attr title "packet drop: forwarding disabled, sum(packetBytes)"
scalar manets.nodoFijo1.ipv4.ip packetDropNoInterfaceFound:count 0
attr interpolationmode none
attr recordingmode count
attr source packetDropReasonIsNoInterfaceFound(packetDropped)
attr title "packet drop: no interface found, count"
scalar manets.nodoFijo1.ipv4.ip packetDropNoInterfaceFound:sum(packetBytes) 0
attr interpolationmode none
attr recordingmode sum(packetBytes)
attr source packetDropReasonIsNoInterfaceFound(packetDropped)
attr title "packet drop: no interface found, sum(packetBytes)"
scalar manets.nodoFijo1.ipv4.ip packetDropNoRouteFound:count 0
attr interpolationmode none
attr recordingmode count
attr source packetDropReasonIsNoRouteFound(packetDropped)
attr title "packet drop: no route found, count"
scalar manets.nodoFijo1.ipv4.ip packetDropNoRouteFound:sum(packetBytes) 0
attr interpolationmode none
attr recordingmode sum(packetBytes)
attr source packetDropReasonIsNoRouteFound(packetDropped)
attr title "packet drop: no route found, sum(packetBytes)"
scalar manets.nodoFijo1.ipv4.ip packetDropUndefined:count 0
attr interpolationmode none
attr recordingmode count
attr source packetDropReasonIsUndefined(packetDropped)
attr title "packet drop: undefined, count"
scalar manets.nodoFijo1.ipv4.ip packetDropUndefined:sum(packetBytes) 0
attr interpolationmode none
attr recordingmode sum(packetBytes)
attr source packetDropReasonIsUndefined(packetDropped)
attr title "packet drop: undefined, sum(packetBytes)"
par manets.nodoFijo1.ipv4.arp typename "\"inet.networklayer.arp.ipv4.Arp\""
par manets.nodoFijo1.ipv4.arp interfaceTableModule "\"manets.nodoFijo1.interfaceTable\""
par manets.nodoFijo1.ipv4.arp routingTableModule "\"manets.nodoFijo1.ipv4.routingTable\""
par manets.nodoFijo1.ipv4.arp retryTimeout 1s
attr unit s
par manets.nodoFijo1.ipv4.arp retryCount 3
par manets.nodoFijo1.ipv4.arp cacheTimeout 120s
attr unit s
par manets.nodoFijo1.ipv4.arp proxyArpInterfaces "\"\""
scalar manets.nodoFijo1.ipv4.arp arpReplySent:count 0
attr recordingmode count
attr source arpReplySent
attr title "ARP replies sent, count"
scalar manets.nodoFijo1.ipv4.arp arpReplySent:sum(packetBytes) 0
attr recordingmode sum(packetBytes)
attr source arpReplySent
attr title "ARP replies sent, sum(packetBytes)"
scalar manets.nodoFijo1.ipv4.arp arpRequestSent:count 8
[...]
par manets.nodoMovil[6].wlan[0].radio.antenna mobilityModule "\"^.^.^.mobility\""
par manets.nodoMovil[6].wlan[0].radio.antenna numAntennas 1
par manets.nodoMovil[6].wlan[0].radio.transmitter typename "\"inet.physicallayer.wireless.unitdisk.UnitDiskTransmitter\""
par manets.nodoMovil[6].wlan[0].radio.transmitter preambleDuration 0s
attr unit s
par manets.nodoMovil[6].wlan[0].radio.transmitter headerLength 96b
attr unit b
par manets.nodoMovil[6].wlan[0].radio.transmitter bitrate 2e+06bps
attr unit bps
par manets.nodoMovil[6].wlan[0].radio.transmitter communicationRange 400m
attr unit m
par manets.nodoMovil[6].wlan[0].radio.transmitter interferenceRange 0m
attr unit m
par manets.nodoMovil[6].wlan[0].radio.transmitter detectionRange 0m
attr unit m
par manets.nodoMovil[6].wlan[0].radio.receiver typename "\"inet.physicallayer.wireless.unitdisk.UnitDiskReceiver\""
par manets.nodoMovil[6].wlan[0].radio.receiver ignoreInterference true
par manets.nodoMovil[6].wlan[0].radio typename "\"inet.physicallayer.wireless.unitdisk.UnitDiskRadio\""
par manets.nodoMovil[6].wlan[0].radio radioMediumModule "\"radioMedium\""
par manets.nodoMovil[6].wlan[0].radio energySourceModule "\"\""
par manets.nodoMovil[6].wlan[0].radio initialRadioMode "\"off\""
attr enum off,sleep,receiver,transmitter,transceiver
par manets.nodoMovil[6].wlan[0].radio switchingTimes "\"ms 0 0 0 0 0 0 0 0 0 0 0 0 0 0 0 0 0 0 0 0 0 0 0 0 0\""
par manets.nodoMovil[6].wlan[0].radio sendRawBytes false
par manets.nodoMovil[6].wlan[0].radio separateTransmissionParts false
par manets.nodoMovil[6].wlan[0].radio separateReceptionParts false
par manets.nodoMovil[6].wlan[0].radio displayCommunicationRange true
par manets.nodoMovil[6].wlan[0].radio displayInterferenceRange false
statistic manets.nodoMovil[6].wlan[0].radio minSnir:histogram
field count 0
field mean nan
field stddev nan
field min nan
field max nan
field sum 0
field sqrsum 0
attr recordingmode histogram
attr source minimumSnir(packetSentToUpper)
attr title "Min SNIR"
bin	-inf	0
bin	0	0
bin	1	0
statistic manets.nodoMovil[6].wlan[0].radio packetErrorRate:histogram
field count 0
field mean nan
field stddev nan
field min nan
field max nan
field sum 0
field sqrsum 0
attr recordingmode histogram
attr source packetErrorRate(packetSentToUpper)
attr title "Packet error rate"
bin	-inf	0
bin	0	0
bin	1	0
statistic manets.nodoMovil[6].wlan[0].radio bitErrorRate:histogram
field count 0
field mean nan
field stddev nan
field min nan
field max nan
field sum 0
field sqrsum 0
attr recordingmode histogram
attr source bitErrorRate(packetSentToUpper)
attr title "Bit error rate"
bin	-inf	0
bin	0	0
bin	1	0
statistic manets.nodoMovil[6].wlan[0].radio symbolErrorRate:histogram
field count 0
field mean nan
field stddev nan
field min nan
field max nan
field sum 0
field sqrsum 0
attr recordingmode histogram
attr source symbolErrorRate(packetSentToUpper)
attr title "Symbol error rate"
bin	-inf	0
bin	0	0
bin	1	0
scalar manets.nodoMovil[6].wlan[0].radio transmissionState:count 1
attr interpolationmode sample-hold
attr recordingmode count
attr source transmissionStateChanged
attr title "Radio transmission state, count"
scalar manets.nodoMovil[6].wlan[0].radio receptionState:count 1
attr interpolationmode sample-hold
attr recordingmode count
attr source receptionStateChanged
attr title "Radio reception state, count"
scalar manets.nodoMovil[6].wlan[0].radio radioMode:count 3
attr interpolationmode sample-hold
attr recordingmode count
attr source radioModeChanged
attr title "Radio mode, count"
par manets.nodoMovil[6].wlan[0] typename "\"inet.linklayer.acking.AckingWirelessInterface\""
par manets.nodoMovil[6].wlan[0] displayStringTextFormat "\"%a (%i)\\n%m\""
par manets.nodoMovil[6].wlan[0] recordPcap false
par manets.nodoMovil[6].wlan[0] numPcapRecorders 0
par manets.nodoMovil[6].wlan[0] interfaceTableModule "\"manets.nodoMovil[6].interfaceTable\""
par manets.nodoMovil[6].wlan[0] energySourceModule "\"\""
par manets.nodoMovil[6].wlan[0] bitrate 2e+06bps
attr unit bps
scalar manets.nodoMovil[6].wlan[0] packetDropInterfaceDown:count 0
attr interpolationmode none
attr recordingmode count
attr source packetDropReasonIsInterfaceDown(packetDropped)
attr title "packet drops: interface down, count"
scalar manets.nodoMovil[6].wlan[0] packetDropInterfaceDown:sum(packetBytes) 0
attr interpolationmode none
attr recordingmode sum(packetBytes)
attr source packetDropReasonIsInterfaceDown(packetDropped)
attr title "packet drops: interface down, sum(packetBytes)"
scalar manets.nodoMovil[6].wlan[0] packetDropNoCarrier:count 0
attr interpolationmode none
attr recordingmode count
attr source packetDropReasonIsNoCarrier(packetDropped)
attr title "packet drops: no carrier, count"
scalar manets.nodoMovil[6].wlan[0] packetDropNoCarrier:sum(packetBytes) 0
attr interpolationmode none
attr recordingmode sum(packetBytes)
attr source packetDropReasonIsNoCarrier(packetDropped)
attr title "packet drops: no carrier, sum(packetBytes)"
par manets.nodoMovil[6].ipv4.transportIn.channel typename "\"ned.IdealChannel\""
par manets.nodoMovil[6].ipv4.up.out[0].channel typename "\"ned.IdealChannel\""
par manets.nodoMovil[6].ipv4.lp.out[2].channel typename "\"ned.IdealChannel\""
par manets.nodoMovil[6].ipv4.ifIn.channel typename "\"ned.IdealChannel\""
par manets.nodoMovil[6].ipv4.configurator typename "\"inet.networklayer.configurator.ipv4.Ipv4NodeConfigurator\""
par manets.nodoMovil[6].ipv4.configurator interfaceTableModule "\"manets.nodoMovil[6].interfaceTable\""
par manets.nodoMovil[6].ipv4.configurator routingTableModule "\"manets.nodoMovil[6].ipv4.routingTable\""
par manets.nodoMovil[6].ipv4.configurator networkConfiguratorModule "\"configurator\""
par manets.nodoMovil[6].ipv4.configurator configureRoutingTable true
par manets.nodoMovil[6].ipv4.routingTable typename "\"inet.networklayer.ipv4.Ipv4RoutingTable\""
par manets.nodoMovil[6].ipv4.routingTable interfaceTableModule "\"manets.nodoMovil[6].interfaceTable\""
par manets.nodoMovil[6].ipv4.routingTable routerId "\"auto\""
par manets.nodoMovil[6].ipv4.routingTable netmaskRoutes "\"*\""
par manets.nodoMovil[6].ipv4.routingTable forwarding true
par manets.nodoMovil[6].ipv4.routingTable multicastForwarding false
par manets.nodoMovil[6].ipv4.routingTable useAdminDist false
par manets.nodoMovil[6].ipv4.routingTable routingFile "\"\""
par manets.nodoMovil[6].ipv4.natTable typename "\"inet.networklayer.ipv4.Ipv4NatTable\""
par manets.nodoMovil[6].ipv4.natTable networkProtocolModule "\"^.ip\""
par manets.nodoMovil[6].ipv4.natTable config "<config/> at content:1"
par manets.nodoMovil[6].ipv4.up typename "\"inet.common.MessageDispatcher\""
par manets.nodoMovil[6].ipv4.up displayStringTextFormat "\"processed %p pk (%l)\""
par manets.nodoMovil[6].ipv4.up forwardServiceRegistration true
par manets.nodoMovil[6].ipv4.up forwardProtocolRegistration true
par manets.nodoMovil[6].ipv4.igmp typename "\"inet.networklayer.ipv4.Igmpv2\""
par manets.nodoMovil[6].ipv4.igmp interfaceTableModule "\"manets.nodoMovil[6].interfaceTable\""
par manets.nodoMovil[6].ipv4.igmp routingTableModule "\"manets.nodoMovil[6].ipv4.routingTable\""
par manets.nodoMovil[6].ipv4.igmp crcMode "\"declared\""
attr enum declared,computed
par manets.nodoMovil[6].ipv4.igmp enabled true
par manets.nodoMovil[6].ipv4.igmp robustnessVariable 2
par manets.nodoMovil[6].ipv4.igmp queryInterval 125s
attr unit s
par manets.nodoMovil[6].ipv4.igmp queryResponseInterval 10s
attr unit s
par manets.nodoMovil[6].ipv4.igmp groupMembershipInterval 260s
attr unit s
par manets.nodoMovil[6].ipv4.igmp otherQuerierPresentInterval 255s
attr unit s
par manets.nodoMovil[6].ipv4.igmp startupQueryInterval 31.25s
attr unit s
par manets.nodoMovil[6].ipv4.igmp startupQueryCount 2
par manets.nodoMovil[6].ipv4.igmp lastMemberQueryInterval 1s
attr unit s
par manets.nodoMovil[6].ipv4.igmp lastMemberQueryCount 2
par manets.nodoMovil[6].ipv4.igmp unsolicitedReportInterval 10s
attr unit s
par manets.nodoMovil[6].ipv4.icmp typename "\"inet.networklayer.ipv4.Icmp\""
par manets.nodoMovil[6].ipv4.icmp interfaceTableModule "\"manets.nodoMovil[6].interfaceTable\""
par manets.nodoMovil[6].ipv4.icmp routingTableModule "\"manets.nodoMovil[6].ipv4.routingTable\""
par manets.nodoMovil[6].ipv4.icmp crcMode "\"declared\""
attr enum declared,computed
attr mutable ""
par manets.nodoMovil[6].ipv4.icmp quoteLength 8B
attr mutable ""
attr unit B
par manets.nodoMovil[6].ipv4.mp typename "\"inet.common.MessageDispatcher\""
par manets.nodoMovil[6].ipv4.mp displayStringTextFormat "\"processed %p pk (%l)\""
par manets.nodoMovil[6].ipv4.mp forwardServiceRegistration true
par manets.nodoMovil[6].ipv4.mp forwardProtocolRegistration true
par manets.nodoMovil[6].ipv4.ip typename "\"inet.networklayer.ipv4.Ipv4\""
par manets.nodoMovil[6].ipv4.ip interfaceTableModule "\"manets.nodoMovil[6].interfaceTable\""
par manets.nodoMovil[6].ipv4.ip routingTableModule "\"manets.nodoMovil[6].ipv4.routingTable\""
par manets.nodoMovil[6].ipv4.ip arpModule "\"manets.nodoMovil[6].ipv4.arp\""
par manets.nodoMovil[6].ipv4.ip icmpModule "\"manets.nodoMovil[6].ipv4.icmp\""
par manets.nodoMovil[6].ipv4.ip crcMode "\"declared\""
attr enum declared,computed
par manets.nodoMovil[6].ipv4.ip timeToLive 32
par manets.nodoMovil[6].ipv4.ip multicastTimeToLive 32
par manets.nodoMovil[6].ipv4.ip fragmentTimeout 60s
attr unit s
par manets.nodoMovil[6].ipv4.ip limitedBroadcast false
par manets.nodoMovil[6].ipv4.ip directBroadcastInterfaces "\"\""
scalar manets.nodoMovil[6].ipv4.ip packetDropAddressResolutionFailed:count 0
attr interpolationmode none
attr recordingmode count
attr source packetDropReasonIsAddressResolutionFailed(packetDropped)
attr title "packet drop: address resolution failed, count"
scalar manets.nodoMovil[6].ipv4.ip packetDropAddressResolutionFailed:sum(packetBytes) 0
attr interpolationmode none
attr recordingmode sum(packetBytes)
attr source packetDropReasonIsAddressResolutionFailed(packetDropped)
attr title "packet drop: address resolution failed, sum(packetBytes)"
scalar manets.nodoMovil[6].ipv4.ip packetDropHopLimitReached:count 0
attr interpolationmode none
attr recordingmode count
attr source packetDropReasonIsHopLimitReached(packetDropped)
attr title "packet drop: hop limit reached, count"
scalar manets.nodoMovil[6].ipv4.ip packetDropHopLimitReached:sum(packetBytes) 0
attr interpolationmode none
attr recordingmode sum(packetBytes)
attr source packetDropReasonIsHopLimitReached(packetDropped)
attr title "packet drop: hop limit reached, sum(packetBytes)"
scalar manets.nodoMovil[6].ipv4.ip packetDropForwardingDisabled:count 0
attr interpolationmode none
attr recordingmode count
attr source packetDropReasonIsForwardingDisabled(packetDropped)
attr title "packet drop: forwarding disabled, count"
scalar manets.nodoMovil[6].ipv4.ip packetDropForwardingDisabled:sum(packetBytes) 0
attr interpolationmode none
attr recordingmode sum(packetBytes)
attr source packetDropReasonIsForwardingDisabled(packetDropped)
attr title "packet drop: forwarding disabled, sum(packetBytes)"
scalar manets.nodoMovil[6].ipv4.ip packetDropNoInterfaceFound:count 0
attr interpolationmode none
attr recordingmode count
attr source packetDropReasonIsNoInterfaceFound(packetDropped)
attr title "packet drop: no interface found, count"
scalar manets.nodoMovil[6].ipv4.ip packetDropNoInterfaceFound:sum(packetBytes) 0
attr interpolationmode none
attr recordingmode sum(packetBytes)
attr source packetDropReasonIsNoInterfaceFound(packetDropped)
attr title "packet drop: no interface found, sum(packetBytes)"
scalar manets.nodoMovil[6].ipv4.ip packetDropNoRouteFound:count 0
attr interpolationmode none
attr recordingmode count
attr source packetDropReasonIsNoRouteFound(packetDropped)
attr title "packet drop: no route found, count"
scalar manets.nodoMovil[6].ipv4.ip packetDropNoRouteFound:sum(packetBytes) 0
attr interpolationmode none
attr recordingmode sum(packetBytes)
attr source packetDropReasonIsNoRouteFound(packetDropped)
attr title "packet drop: no route found, sum(packetBytes)"
scalar manets.nodoMovil[6].ipv4.ip packetDropUndefined:count 0
attr interpolationmode none
attr recordingmode count
attr source packetDropReasonIsUndefined(packetDropped)
attr title "packet drop: undefined, count"
scalar manets.nodoMovil[6].ipv4.ip packetDropUndefined:sum(packetBytes) 0
attr interpolationmode none
attr recordingmode sum(packetBytes)
attr source packetDropReasonIsUndefined(packetDropped)
attr title "packet drop: undefined, sum(packetBytes)"
par manets.nodoMovil[6].ipv4.arp typename "\"inet.networklayer.arp.ipv4.Arp\""
par manets.nodoMovil[6].ipv4.arp interfaceTableModule "\"manets.nodoMovil[6].interfaceTable\""
par manets.nodoMovil[6].ipv4.arp routingTableModule "\"manets.nodoMovil[6].ipv4.routingTable\""
par manets.nodoMovil[6].ipv4.arp retryTimeout 1s
attr unit s
par manets.nodoMovil[6].ipv4.arp retryCount 3
par manets.nodoMovil[6].ipv4.arp cacheTimeout 120s
attr unit s
par manets.nodoMovil[6].ipv4.arp proxyArpInterfaces "\"\""
scalar manets.nodoMovil[6].ipv4.arp arpReplySent:count 0
attr recordingmode count
attr source arpReplySent
attr title "ARP replies sent, count"
scalar manets.nodoMovil[6].ipv4.arp arpReplySent:sum(packetBytes) 0
attr recordingmode sum(packetBytes)
attr source arpReplySent
attr title "ARP replies sent, sum(packetBytes)"
scalar manets.nodoMovil[6].ipv4.arp arpRequestSent:count 0
attr recordingmode count
attr source arpRequestSent
attr title "ARP request sent, count"
scalar manets.nodoMovil[6].ipv4.arp arpRequestSent:sum(packetBytes) 0
attr recordingmode sum(packetBytes)
attr source arpRequestSent
attr title "ARP request sent, sum(packetBytes)"
scalar manets.nodoMovil[6].ipv4.arp arpResolutionFailed:count 0
attr recordingmode count
attr title "ARP failed resolutions, count"
scalar manets.nodoMovil[6].ipv4.arp arpResolutionCompleted:count 0
attr recordingmode count
attr title "ARP completed resolutions, count"
scalar manets.nodoMovil[6].ipv4.arp arpResolutionInitiated:count 0
attr recordingmode count
attr title "ARP initiated resolutions, count"
par manets.nodoMovil[6].ipv4.lp typename "\"inet.common.MessageDispatcher\""
par manets.nodoMovil[6].ipv4.lp displayStringTextFormat "\"processed %p pk (%l)\""
par manets.nodoMovil[6].ipv4.lp forwardServiceRegistration true
par manets.nodoMovil[6].ipv4.lp forwardProtocolRegistration true
par manets.nodoMovil[6].ipv4 typename "\"inet.networklayer.ipv4.Ipv4NetworkLayer\""
par manets.nodoMovil[6].ipv4 forwarding true
par manets.nodoMovil[6].ipv4 multicastForwarding false
par manets.nodoMovil[6].ipv4 interfaceTableModule "\"manets.nodoMovil[6].interfaceTable\""
par manets.nodoMovil[6].ipv4 displayStringTextFormat "\"%i\""
par manets.nodoMovil[6].nl typename "\"inet.common.MessageDispatcher\""
par manets.nodoMovil[6].nl displayStringTextFormat "\"processed %p pk (%l)\""
par manets.nodoMovil[6].nl forwardServiceRegistration true
par manets.nodoMovil[6].nl forwardProtocolRegistration true
par manets.nodoMovil[6].udp typename "\"inet.transportlayer.udp.Udp\""
par manets.nodoMovil[6].udp interfaceTableModule "\"manets.nodoMovil[6].interfaceTable\""
par manets.nodoMovil[6].udp icmpModule "\"^.ipv4.icmp\""
par manets.nodoMovil[6].udp icmpv6Module "\"^.ipv6.icmpv6\""
par manets.nodoMovil[6].udp crcMode "\"declared\""
attr enum disabled,declared,computed
par manets.nodoMovil[6].udp defaultMulticastLoop true
scalar manets.nodoMovil[6].udp packetReceived:count 0
attr interpolationmode none
attr recordingmode count
attr source packetReceived
attr title "packets received, count"
scalar manets.nodoMovil[6].udp packetReceived:sum(packetBytes) 0
attr interpolationmode none
attr recordingmode sum(packetBytes)
attr source packetReceived
attr title "packets received, sum(packetBytes)"
scalar manets.nodoMovil[6].udp packetSent:count 0
attr interpolationmode none
attr recordingmode count
attr source packetSent
attr title "packets sent, count"
scalar manets.nodoMovil[6].udp packetSent:sum(packetBytes) 0
attr interpolationmode none
attr recordingmode sum(packetBytes)
attr source packetSent
attr title "packets sent, sum(packetBytes)"
scalar manets.nodoMovil[6].udp passedUpPk:count 0
attr interpolationmode none
attr recordingmode count
attr source packetSentToUpper
attr title "packets passed up, count"
scalar manets.nodoMovil[6].udp droppedPkWrongPort:count 0
attr interpolationmode none
attr recordingmode count
attr source packetDropReasonIsNoPortFound(packetDropped)
attr title "packets dropped (wrong port), count"
scalar manets.nodoMovil[6].udp droppedPkBadChecksum:count 0
attr interpolationmode none
attr recordingmode count
attr source packetDropReasonIsIncorrectlyReceived(packetDropped)
attr title "packets dropped (checksum error), count"
par manets.nodoMovil[6].tcp typename "\"inet.transportlayer.tcp.Tcp\""
par manets.nodoMovil[6].tcp crcMode "\"declared\""
attr enum declared,computed
par manets.nodoMovil[6].tcp advertisedWindow 7504
par manets.nodoMovil[6].tcp delayedAcksEnabled false
par manets.nodoMovil[6].tcp nagleEnabled true
par manets.nodoMovil[6].tcp limitedTransmitEnabled false
par manets.nodoMovil[6].tcp increasedIWEnabled false
par manets.nodoMovil[6].tcp sackSupport false
par manets.nodoMovil[6].tcp windowScalingSupport false
par manets.nodoMovil[6].tcp windowScalingFactor -1
par manets.nodoMovil[6].tcp timestampSupport false
par manets.nodoMovil[6].tcp mss 536
par manets.nodoMovil[6].tcp msl 120s
attr unit s
par manets.nodoMovil[6].tcp tcpAlgorithmClass "\"TcpReno\""
attr enum TcpVegas,TcpWestwood,TcpNewReno,TcpReno,TcpTahoe,TcpNoCongestionControl
par manets.nodoMovil[6].tcp useDataNotification false
par manets.nodoMovil[6].tcp dupthresh 3
par manets.nodoMovil[6].tcp initialSsthresh 4294967295
par manets.nodoMovil[6].tcp stopOperationExtraTime 0s
attr unit s
par manets.nodoMovil[6].tcp stopOperationTimeout 2s
attr unit s
par manets.nodoMovil[6].tcp ecnWillingness false
par manets.nodoMovil[6].tcp dctcpGamma 0.0625
par manets.nodoMovil[6].tn typename "\"inet.common.MessageDispatcher\""
par manets.nodoMovil[6].tn displayStringTextFormat "\"processed %p pk (%l)\""
par manets.nodoMovil[6].tn forwardServiceRegistration true
par manets.nodoMovil[6].tn forwardProtocolRegistration true
par manets.nodoMovil[6].at typename "\"inet.common.MessageDispatcher\""
par manets.nodoMovil[6].at displayStringTextFormat "\"processed %p pk (%l)\""
par manets.nodoMovil[6].at forwardServiceRegistration true
par manets.nodoMovil[6].at forwardProtocolRegistration true
par manets.nodoMovil[6] typename "\"inet.node.inet.ManetRouter\""
par manets.nodoMovil[6] hasStatus false
par manets.nodoMovil[6] osgModel "\"\""
par manets.nodoMovil[6] osgModelColor "\"\""
par manets.nodoMovil[6] canvasImage "\"\""
par manets.nodoMovil[6] canvasImageColor "\"\""
par manets.nodoMovil[6] recordPcap false
par manets.nodoMovil[6] numPcapRecorders 0
par manets.nodoMovil[6] numLoInterfaces 1
par manets.nodoMovil[6] numWlanInterfaces 1
par manets.nodoMovil[6] numEthInterfaces 0
par manets.nodoMovil[6] numPppInterfaces 0
par manets.nodoMovil[6] numTunInterfaces 0
par manets.nodoMovil[6] numVirtInterfaces 0
par manets.nodoMovil[6] fcsMode "\"declared\""
attr enum declared,computed
par manets.nodoMovil[6] hasIpv4 true
par manets.nodoMovil[6] hasIpv6 false
par manets.nodoMovil[6] hasGn false
par manets.nodoMovil[6] forwarding true
par manets.nodoMovil[6] multicastForwarding false
par manets.nodoMovil[6] hasUdp true
par manets.nodoMovil[6] hasTcp true
par manets.nodoMovil[6] hasSctp false
par manets.nodoMovil[6] numApps 0
par manets typename "\"aodv.simulations.manets\""
par manets n 7

